57
Coordinates from ORCA-job cat_opt E -3035.562470447745
  Au          5.91134163858460      4.06493986145192     11.51178612445383
  Au          3.65959317312276      3.72860829895173      9.24310080602432
  P           6.86503578827858      5.16505415711284      9.79122666833553
  P           5.30497814572190      3.42277099940818      7.73252911157601
  Cl          5.17282146688334      2.85507654800696     13.31001012191727
  Cl          1.86749972412369      4.19963635608367     10.60296489008441
  C           7.04619580232012      3.95292232811634      8.35160955414334
  H           7.44897586771479      3.03902581268141      8.83128689047339
  C           5.64092556173163      1.72699116333867      7.22352336953133
  C           5.91490471429675      0.66948497645933      8.15571789220328
  C           6.20854136865611     -0.46266322138322      7.41036985549148
  N           6.11022212110235     -0.12678378413407      6.07706467738916
  C           5.76514992449835      1.19324041733303      5.94115494988758
  H           5.87243359682628      0.74066930678580      9.24944419797403
  H           6.45645342962490     -1.48200941623232      7.72442797886357
  H           6.25929204546035     -0.77025146233100      5.30105453197152
  H           5.62688836327322      1.65732879761813      4.96067320304867
  C           5.08026196717213      4.41375661753767      6.24166979061719
  C           4.05752732163177      5.40649085350510      6.08018979510280
  C           4.24021778946194      5.98857330187960      4.83573979176691
  N           5.33255176833491      5.38537793194903      4.24549611281811
  C           5.85947539041540      4.43128165007969      5.07618492771058
  H           3.28500025968281      5.64818844853932      6.81850154422967
  H           3.67360169749700      6.76961457039562      4.31792694310863
  H           5.68507772487575      5.59825220776612      3.31289040286526
  H           6.74349455938057      3.85109017862981      4.79008462594862
  C           6.00216517548587      6.59367772394191      9.10505181292963
  C           4.65516145725207      6.98561354299787      9.40346964560431
  C           4.35402598718703      8.06229841758053      8.58411089234382
  N           5.46479483795921      8.33376608990984      7.81228618250799
  C           6.47611872720636      7.46030706204988      8.11088600681734
  H           3.98668351242480      6.50960711176526     10.13081363276423
  H           3.43889934146222      8.65669455394584      8.49469582557098
  H           5.52668245316863      9.08244976964918      7.12363169130583
  H           7.46310939131026      7.53731554746203      7.64248812350955
  C           8.56732178765424      5.71810121837440     10.02872453331122
  C           9.73664080687195      4.88793041318447     10.07503166438566
  C          10.80736649686767      5.70699691121479     10.39748293480636
  N          10.32646217545903      6.98960176269440     10.55267946421511
  C           8.97291627962927      7.01909716952051     10.33428000531758
  H           9.78738914168632      3.81065262508992      9.88377283147524
  H          11.87115653820374      5.47836891938685     10.52041651577185
  H          10.89195036589625      7.79807675853913     10.80735810693788
  H           8.38687611700415      7.93872224470778     10.42840579011653
  C           8.82253786281162      3.62211705182559      6.61048749255512
  C           9.06582835987116      2.25768728108867      6.90155626249245
  C          10.00004922452491      1.53259410835797      6.15123454574642
  C          10.70498019830892      2.12714520998746      5.09237320889816
  C          10.45819757925358      3.47732091889623      4.79229427975269
  C           9.53374597172606      4.21732745814794      5.53723218334706
  N           7.92521937748472      4.40030887874035      7.32870246030487
  H           8.49943159074354      1.74662341349653      7.69226925492350
  H          10.16863874430213      0.47324215416084      6.39942816140836
  H          11.43406039539541      1.54758727384105      4.50796186280199
  H          10.99863106780862      3.96721066470811      3.96747236681224
  H           9.35785941631277      5.27991356892476      5.30361246876957
  H           7.67995240805493      5.29994427626021      6.91150503495934
