67
Coordinates from ORCA-job cat_opt E -2997.659692120215
  Au          5.96427936011846      3.76361117165237     10.49496322659116
  Au          3.79305985496062      4.66329151011479      8.41009713915950
  P           6.97076727166176      5.37217581944342      9.26762965908277
  P           5.53457951167867      3.95671710888453      7.15167231984498
  Cl          5.05265407059409      1.95450052643971     11.57352170547504
  Cl          2.06055548846762      5.55565140147307      9.62120877054840
  N           6.97361292356148      4.82949128925510      7.60068875978332
  C           5.08049194366565     -0.08328497657579      6.98257636311471
  C           4.59399850372143      1.28528115005174      7.47528624592666
  C           5.87515789835177      2.12037133894718      7.33534207257733
  O           6.63626207511889      1.54740612269262      6.26496754662196
  C           6.02709776788719      0.30893960189127      5.84899893338931
  H           4.25837357339015     -0.74451615520570      6.64708908869886
  H           5.63740946807127     -0.60542455645501      7.78752207719504
  H           4.22715882915126      1.28655757585390      8.51989135655393
  H           3.79313533286658      1.68831075619393      6.82245114544944
  H           6.46681794136296      2.07267489533757      8.28149196999027
  H           6.83643365395247     -0.42516093472173      5.65902091104285
  H           5.47236790394865      0.46977754430396      4.89361925711996
  C           5.09430187269603      3.66703825748955      3.06361665284086
  C           6.11205578636885      3.88141880453873      4.19343570572111
  C           5.19176157044179      4.33264584043788      5.34003575596934
  O           3.93381222350193      3.68142200449367      5.11935773282513
  C           3.92150487762123      3.05585984367543      3.82604478571787
  H           5.47746046415994      3.01449407304087      2.25501832484765
  H           4.79954981822674      4.63713000322410      2.61260677718187
  H           6.88788728011501      4.62991827319852      3.94819842681690
  H           6.60629036232625      2.92678902569810      4.44970213382540
  H           5.05376913182439      5.44126007739185      5.32190422724997
  H           2.93318407584845      3.24721469821108      3.36127499800002
  H           4.04128957404445      1.95247714339286      3.94169482789701
  C           5.36191069622101      8.97365517804139     10.34861145867061
  C           5.49885064247364      7.46289814179343     10.57833603202593
  C           6.11795857670974      7.04078729938144      9.24305632163502
  O           6.96950951092685      8.10645771581662      8.82177763071125
  C           6.63062082098049      9.30170166564823      9.55457884247591
  H           5.28299116125151      9.55459272682347     11.28772936565514
  H           4.45688436261121      9.18053618910788      9.74140459428986
  H           4.53487038244621      6.95082349026963     10.76558021575504
  H           6.19248896711581      7.23573663003359     11.41292868437561
  H           5.30691001830116      6.87615464955862      8.48866910722337
  H           6.49810962571075     10.13469683032506      8.83254870324017
  H           7.47828327378580      9.56628764653353     10.22955328862047
  C          10.44068780559772      7.25423649773086     10.36056535958516
  C           9.69237024347007      6.65169621211873      9.16039603157601
  C           8.73963749674126      5.66100412445169      9.85749631532561
  O           8.52866756065611      6.15388879783536     11.18605670221311
  C           9.33555924329135      7.31983254508748     11.41029049623539
  H          10.88781001599147      8.24221879277234     10.13597104710949
  H          11.25210872845760      6.57668566611163     10.69780510986219
  H          10.36785805455218      6.14266843640894      8.44740350538922
  H           9.11860395078576      7.43384789510023      8.62985069678598
  H           9.18563989027712      4.64391159991842      9.91543018959491
  H           9.70210620351659      7.27875167901312     12.45557811366125
  H           8.71919784290323      8.24128084227458     11.29291101303718
  C           8.10539927973584      5.01157590927307      6.67476373255752
  C           8.94306035565250      3.75359682191868      6.39595314209782
  C           9.49079689789000      3.04783635960303      7.63923808355497
  B           9.79337079195649      3.76485709714910      5.10625218080332
  H           7.73375416983735      5.43344393307206      5.71908358071278
  H           8.75089949379985      5.80234528407622      7.09822196437853
  H           8.25022166342425      2.99676706125427      5.89511672761990
  H          10.27846153936427      3.65438730361413      8.13193622927778
  H           8.69810934415540      2.84964788887735      8.39062063982139
  H           9.94706734980398      2.07557161866783      7.37280889749624
  H           9.51304939328898      4.51780655655321      4.18766737161687
  H          10.66541123660978      2.93182967941486      4.93688172794956
