80
Coordinates from ORCA-job cat_opt E -3264.128583893483
  Au          6.71696522723515      3.28491574637931     11.27968050253565
  Au          3.98958007688158      3.26992873736520      9.27474025989595
  P           7.25400054401224      4.53103497595056      9.48727649767163
  P           5.35750360948864      3.22578741987084      7.47006040174032
  Cl          6.32061862918607      1.98667682519694     13.11989756053254
  Cl          2.44970410547962      3.41566554393767     10.96171444233307
  C           7.11164160056619      3.53064964637812      7.93619394077895
  C           8.23616600003139      2.94447513875188      7.44519044736054
  H           9.18396021511072      3.20212244175633      7.95071053306339
  C           3.72860024552991      0.19579637040937      5.30757467087629
  C           3.71456563882254      1.12077951553321      6.52945285440993
  C           5.17022840225924      1.61314387507639      6.53532716778217
  O           5.56406779007785      1.69469676063556      5.16349905146088
  C           4.62383158727373      0.97191539027182      4.34096546820179
  H           2.71936923087818      0.00276952779631      4.89561797015768
  H           4.18648184574098     -0.78178274854374      5.56507626052077
  H           3.43513606302816      0.62558300230802      7.47783629297234
  H           3.03209262188019      1.97940367919087      6.36972005937617
  H           5.82309327792556      0.89159515919530      7.08437205154666
  H           5.19538814236768      0.32600562767011      3.64266804505818
  H           4.03573774820383      1.70121669633329      3.73957536850231
  C           5.18446404323954      5.51523096185939      4.08272025571942
  C           6.05084043504696      4.89752861458927      5.18831833920449
  C           4.98074532262005      4.60172391732295      6.24292055406104
  O           3.78094031018203      4.27690068235367      5.54297761492466
  C           3.91951151528669      4.65589778606438      4.16269526332855
  H           5.66119794720550      5.48711316774332      3.08342703068224
  H           4.95087911266274      6.57335864982246      4.32220987502142
  H           6.83285040592248      5.57234823280792      5.58239429918872
  H           6.52100273710704      3.95942636747217      4.83644559212345
  H           4.82542485081891      5.50488543496817      6.87657477601226
  H           2.99818269458107      5.19085886510374      3.85204500752951
  H           4.01732899181144      3.74130048932515      3.53342247745623
  C           5.56798750756712      8.21878390307924      9.91185422704875
  C           6.03343068721773      6.89852713793224     10.54002268392873
  C           6.11069413180945      6.00124291184231      9.29629228414510
  O           6.42196680083679      6.84568096271793      8.17905439141039
  C           6.33325457245776      8.22499716880947      8.58827389731263
  H           5.78779092238084      9.10389086678346     10.53969372044950
  H           4.47481920877328      8.19159991078826      9.72400739807012
  H           5.33548205464946      6.48316840890531     11.29123687361029
  H           7.02896598813992      6.99836770177107     11.01497193352717
  H           5.11228508392814      5.52255247345556      9.13145537874178
  H           5.83133826516212      8.79399474379412      7.77916074584285
  H           7.36240917163969      8.63881046446420      8.71470029234126
  C          10.53505738468636      6.92204656616575      8.92157166292016
  C           9.46920340115271      6.02910456778640      8.27311767325218
  C           9.01532206267779      5.19665824514574      9.48208030348853
  O           9.15462741847776      6.03690149360499     10.63036153938006
  C           9.90258462391880      7.21317389772079     10.28323339637139
  H          10.75251834648375      7.83923188185543      8.33999955658400
  H          11.48379748271329      6.35925635011635      9.04784135812406
  H           9.85981341039898      5.39800816922102      7.45529450903535
  H           8.62387511647892      6.62454655490037      7.87917866428218
  H           9.66719320749798      4.29911057468273      9.60982869372297
  H          10.64017482400641      7.40700750650901     11.08873661430320
  H           9.21443651013011      8.09072052260310     10.22947458107942
  C           8.43007094960274      1.91311912970032      6.37808893489728
  C           9.72087533399905      2.12296901696940      5.53119501239252
  C           9.56383449870038      3.31567194175155      4.57393163512439
  C          10.67374488704520      3.44186192000783      3.53007724578063
  C          10.95309976755087      2.16676185812468      6.42864928180625
  C          11.40434304683446      0.97626742843183      7.03698498560071
  C          12.47261339984348      0.98021319096284      7.94400364706003
  C          13.12248365854622      2.18345375001437      8.26288133723727
  C          12.69918552765408      3.37411757526369      7.65554769519913
  C          11.62765651842222      3.36276371998646      6.74721405764001
  H           7.55971286267498      1.82533436431422      5.70044601095410
  H           8.52652590710224      0.93389371531043      6.90226185833751
  H           9.81359719925078      1.20896136567260      4.90338071878099
  H           8.58683061548112      3.20232662414815      4.05774054780248
  H           9.46724939303399      4.25672861560151      5.16052918776032
  H          10.49559629110304      4.30227949520757      2.85445507559993
  H          10.73147616749217      2.52924179244269      2.90133629420369
  H          11.66969481848768      3.57926225316182      3.99618688506574
  H          10.90151248387376      0.02526691314090      6.79651291999826
  H          12.80044511823025      0.03696019479454      8.40650529850407
  H          13.95953519570392      2.19005173269051      8.97685414127093
  H          13.20868229061387      4.32303526740563      7.88431503971909
  H          11.32134691710338      4.30686364934509      6.27419787826252
