80
Coordinates from ORCA-job cat_opt E -3264.124743333819
  Au          6.23023633065301      3.82507567036031     11.58759971272217
  Au          3.68247115802287      3.85246356140350      9.43251261636048
  P           7.04599145930428      4.70540435871719      9.68697274471299
  P           5.11225563743946      3.33257407301787      7.75195556304489
  Cl          5.55754148914684      2.88229358985602     13.55889241745617
  Cl          2.09881698916721      4.48340288078177     10.96036746558363
  C           6.87166539817682      3.53070121358220      8.26973708903921
  C           7.95092003741174      2.81279877839457      7.86095689766408
  H           8.90742645967860      3.02368884279814      8.37306013302439
  C           3.18891562416446      0.15751512842652      6.10395226818332
  C           3.29051193570273      1.24008789582231      7.18380813066552
  C           4.78270890784418      1.60124306933938      7.10119608292128
  O           5.16217090275131      1.41503000692201      5.73561028906681
  C           4.11902416423432      0.71433299235655      5.02736700955520
  H           2.15497641085982      0.00199376738377      5.74031963672544
  H           3.56962820086446     -0.81264243231554      6.48531448624382
  H           2.99688236594279      0.90915694999997      8.19732450717132
  H           2.67352414267485      2.12216371939626      6.91802197816783
  H           5.38616087795207      0.93254445067031      7.76152259289918
  H           4.59516362520648     -0.06252782084756      4.39472661626281
  H           3.58401978238500      1.43009857109455      4.36330959984075
  C           5.25094030483027      5.02815306995486      4.02122351056150
  C           6.03206075298957      4.48036493676855      5.22353507544484
  C           4.93425209283024      4.50166840386072      6.29105005802621
  O           3.70620512931266      4.20608909124515      5.62943695452096
  C           3.88164328555219      4.36749245317929      4.21075789838581
  H           5.71512785897128      4.78154567786430      3.04642726364883
  H           5.16319765905310      6.13224966298927      4.08962727492719
  H           6.89894182076191      5.09918186087021      5.52035951061805
  H           6.36582359962900      3.44350514019930      5.02749307439750
  H           4.89278159312597      5.51505396970633      6.75480802151104
  H           3.03949151283691      4.97445047535252      3.81801810240378
  H           3.84605638147832      3.36864926556742      3.71801649734352
  C           5.80244662239317      8.58183407355811      9.36572768990178
  C           6.06262228329095      7.34763212368817     10.23997875753446
  C           6.12454353545609      6.25083053011103      9.16925758102300
  O           6.62984013574691      6.85099310349934      7.96870912199309
  C           6.65453160749527      8.28348789161553      8.13069947248163
  H           6.07993652950309      9.53379917873448      9.85828463132437
  H           4.72944704399481      8.63726495393653      9.08918098028205
  H           5.26548530967098      7.13992968131141     10.97861629738063
  H           7.02326432124181      7.42315756687321     10.78541875691060
  H           5.08765158092009      5.86939614445731      8.98667105941940
  H           6.27012735665078      8.74506425114895      7.19799570239387
  H           7.70952492735907      8.61989641232519      8.27062484960390
  C          10.59486183046877      6.65884452413531      9.07771966651214
  C           9.54292272103760      5.71252769281704      8.48165969399109
  C           8.87896478769180      5.15367339963480      9.75487220525562
  O           9.02552121550224      6.15053229883969     10.76924766521401
  C           9.85232870744325      7.22042078374377     10.28869046780583
  H          10.92549708682944      7.44305468799194      8.36893689923181
  H          11.49055500196801      6.09137856179096      9.40517516558391
  H           9.97946861545967      4.91777077255438      7.84823808708744
  H           8.80057373383738      6.26447824444887      7.87438245501711
  H           9.38632786196130      4.22107307488272     10.09917268397293
  H          10.51660525988992      7.53860725296814     11.11750663533799
  H           9.21651090862384      8.09366418466464     10.00404132931825
  C          10.22986828417678      1.65974920178730      3.48333538633958
  C           9.22402700702717      1.22918353241790      4.56471914714087
  C           9.12727473916648      2.21564533618160      5.72967148010451
  C           8.08923350549911      1.78390922660089      6.78496900710499
  C          10.26805396760728      0.70671482585742      2.31133438049573
  C           9.39789624571082      0.87833171932684      1.21574993478208
  C           9.39029789083845     -0.03292572509380      0.14944534197764
  C          10.25572497499701     -1.13805974995280      0.16212054963867
  C          11.12749061362072     -1.32225375018128      1.24671635575652
  C          11.13107938746527     -0.40758318530222      2.31038650508141
  H           9.96270713211925      2.67820902481038      3.12728356632655
  H          11.24125291084239      1.74134429702736      3.93640279783231
  H           9.50136303019857      0.22081697564414      4.94306518097216
  H           8.22069440247131      1.10821840085731      4.10032360495903
  H           8.84892401243448      3.21894781612746      5.33887612161094
  H          10.12596436706123      2.34216730761745      6.20524007261797
  H           8.43611263720372      0.83247127392174      7.24941377872019
  H           7.13115349493035      1.56421359849266      6.27988356526375
  H           8.71918055773435      1.74666033559339      1.19827559534192
  H           8.70742433352458      0.12285353253804     -0.69983849685414
  H          10.25431181088882     -1.85266603974154     -0.67480869535755
  H          11.81341716513071     -2.18304363989417      1.26295752679246
  H          11.82078265395911     -0.55567697908616      3.15710735967405
