82
Coordinates from ORCA-job cat_opt E -3190.443301141924
  Au          6.35638127486272      3.85530958400495     11.56531669525879
  Au          3.73530019810897      3.86513376580488      9.50512986274197
  P           7.10970135603867      4.70528762885197      9.62521812620265
  P           5.10258113440616      3.31111630705571      7.78454289181757
  Cl          5.74841191700997      2.94175395896543     13.57131880557904
  Cl          2.20744116331927      4.53124739954073     11.07472161634846
  C           6.87989914800423      3.51019673138061      8.23299251282669
  C           7.94102346971352      2.78056543112839      7.79836088879045
  H           8.91577000396312      2.99971454180911      8.27112782228127
  C           3.11035111689401      0.11784544710027      6.25838084093126
  C           3.25467445431578      1.21711096403685      7.31622083039844
  C           4.74458202892764      1.57035975223616      7.17510551958615
  O           5.07619861431507      1.35744122894829      5.80089917061190
  C           4.00485111076242      0.65260234668294      5.14123898870427
  H           2.06359836205157     -0.03832173858436      5.93373297340722
  H           3.49984467672237     -0.84799726539918      6.64190641018235
  H           2.99594793720505      0.90401551200595      8.34479250991343
  H           2.63173845351064      2.09731975913297      7.05820142045525
  H           5.36833116378149      0.91111512878463      7.82591124347035
  H           4.45369659855603     -0.13727067465720      4.50462464167572
  H           3.45070646986020      1.36084009228346      4.48480110274340
  C           5.10355402842300      4.94521842986828      4.02485694767407
  C           5.92934018376078      4.41373233923815      5.20466199810937
  C           4.87446176416950      4.45741763887768      6.31350270634545
  O           3.62044963711612      4.15492368972000      5.70550583990951
  C           3.73937750625457      4.29575098398001      4.27883017587521
  H           5.52803144895181      4.67991815182622      3.03699035120349
  H           5.02393328496101      6.05076590451539      4.07806250833416
  H           6.80950238474288      5.03424933155135      5.45549345217992
  H           6.25188925965914      3.37237122616509      5.01369563080874
  H           4.85434282760241      5.47823536172096      6.76219336484843
  H           2.88563077488761      4.90250783235443      3.91151004683442
  H           3.67787510512873      3.29034476125467      3.80228474313297
  C           5.89858863270788      8.58973713254702      9.28799470517126
  C           6.17449449603447      7.36588403833761     10.17184871759058
  C           6.17986560710099      6.24999122812150      9.11902237291379
  O           6.64097764094391      6.82362719611068      7.88799736217406
  C           6.69488409089974      8.25767150888355      8.02479401988967
  H           6.21110110539517      9.54471479691326      9.75303586308863
  H           4.81628241663803      8.65911145766609      9.05409096975389
  H           5.40369807745957      7.18329729914278     10.94439328385617
  H           7.15597265485647      7.43550989818647     10.67959427862424
  H           5.13296974089738      5.87585582857709      8.98614018891012
  H           6.28009824058078      8.71021889013589      7.10073676100324
  H           7.75987041500773      8.57907391167239      8.11612370442321
  C          10.64931275279548      6.62356328669050      8.86331913167059
  C           9.56919834255843      5.67803027132503      8.31880439130522
  C           8.94693416150895      5.14163726734842      9.62235752722108
  O           9.13805477762795      6.15044901880708     10.61737765780477
  C           9.95687775351667      7.20623500476419     10.09395637176698
  H          10.95851826596613      7.39628222525477      8.13258036208559
  H          11.55278782389466      6.05354791267932      9.16382824140917
  H           9.97661896702458      4.87130980649598      7.68127075832484
  H           8.81018421333969      6.22703832680647      7.72983118685506
  H           9.45919478605951      4.20953190872762      9.96072311069259
  H          10.65430892423319      7.52743367132820     10.89390147708403
  H           9.31944963681682      8.08255910251586      9.82259272127569
  C          10.16309632915899      1.45507934971410      3.44221865885881
  C           9.20433946932062      1.05195679676015      4.56518814149367
  C           9.05702266345535      2.11759366734691      5.65354413205529
  C           8.04364943621814      1.72327859606585      6.74614893729551
  C          10.32781460882020      0.38980582806232      2.35527992563080
  C          11.26653607017203      0.80567157684908      1.21978201752738
  C          11.44361577155851     -0.26201074388589      0.13588695988989
  C          12.37461410282345      0.16927920080783     -0.99779639194945
  H          11.16006952850765      1.69480990573678      3.87660977919896
  H           9.80527246252341      2.40247337457689      2.97885960282611
  H           9.54899403934827      0.09906933367978      5.02604708083654
  H           8.20182915415359      0.83047017681384      4.13485029989523
  H          10.04995584946726      2.32363132118858      6.11347456009420
  H           8.73325823861270      3.07598444894530      5.19173958109103
  H           7.07165663246401      1.49125246701728      6.27397595901955
  H           8.40111849795546      0.78555757712025      7.23087094436714
  H           9.32861769861552      0.13728422293282      1.93313406497709
  H          10.70181864950118     -0.55187470133799      2.81703694010266
  H          12.26275012633644      1.06810468478341      1.64340221340317
  H          10.88624943636808      1.74326920808306      0.75381839838863
  H          11.82907778872487     -1.19502210609603      0.60427249706459
  H          10.44572627040605     -0.52810087344084     -0.27902138812230
  H          11.99317558242449      1.07857886105107     -1.50786975963311
  H          13.38968979126909      0.40824881141335     -0.61697825629759
  H          12.48407041994294     -0.62305252541097     -1.76534570209145
