80
Coordinates from ORCA-job cat_opt E -3264.127159442205
  Au          6.89225884283436      3.33786722047308     11.34150978223229
  Au          4.03656179418469      3.31141762997069      9.47366530830338
  P           7.25151072281311      4.71797947350277      9.60442921091893
  P           5.30467679002509      3.43333512966873      7.60292559904737
  Cl          6.69515147562398      1.90204978687375     13.10855091814851
  Cl          2.62260112857404      3.28918207745734     11.27297180943540
  C           7.07113661455407      3.76423922415252      8.02552891178400
  C           8.19006284929457      3.25544555616291      7.44540823320242
  H           9.16351466838606      3.56504331594783      7.86964629914287
  C           3.74635997189432      0.49572914041395      5.24906714808466
  C           3.65236677370306      1.41519347867215      6.47453587722098
  C           5.10591758438229      1.90474475428060      6.54985195496356
  O           5.51434271732927      2.09880093213434      5.20417713311359
  C           4.73982606728330      1.24090349570157      4.34386517518029
  H           2.76870918209520      0.32318491937337      4.75925030001289
  H           4.15629265841820     -0.49178728771680      5.54464612011771
  H           3.32669267043912      0.90503037704764      7.40024608084662
  H           2.97839820791192      2.27531950534070      6.29091812424944
  H           5.73898197151124      1.13649835189111      7.05571015005761
  H           5.43002987370624      0.55940345341069      3.80201825715019
  H           4.22221594900817      1.87813157793839      3.59197458117176
  C           4.91513575020452      5.79966811456883      4.30714661634427
  C           5.85728888892831      5.23327833658550      5.37890101187907
  C           4.85991138894538      4.89994942332609      6.49883957550446
  O           3.59915028388321      4.63813379155085      5.88598462753523
  C           3.69062229921981      4.90056869990056      4.47716201278182
  H           5.34265556996787      5.75995735569977      3.28613640722131
  H           4.65335518638925      6.85451788431603      4.53223534472028
  H           6.62738653421315      5.94720189221742      5.72605574249403
  H           6.34855005004704      4.31395442102015      5.00855539180958
  H           4.76453318794688      5.76347701544622      7.19346341079250
  H           2.73824612516768      5.36956530834819      4.15640606339547
  H           3.81783627901341      3.94480303003734      3.91839148190453
  C           5.33697873909646      8.24180300898622     10.35047145702362
  C           5.93183905618197      6.92410641443410     10.86477840473697
  C           6.03075095112955      6.13380192038215      9.55347437183893
  O           6.28229290264960      7.07867811646598      8.50686833395830
  C           6.04537704477236      8.41238669456319      9.00460159034791
  H           5.50768527095558      9.09532657727622     11.03463882764849
  H           4.24287198237714      8.13568577125761     10.20030679944952
  H           5.29728079173898      6.39851564135294     11.60309023112023
  H           6.93504712438356      7.07120523763178     11.30961117997683
  H           5.05282071464837      5.61899293448163      9.37194310702675
  H           5.44613221463062      8.96410244631269      8.25124730131515
  H           7.02275983376567      8.93790515714782      9.11792851182818
  C          10.32649427710627      7.33262724514773      8.90802489501301
  C           9.34111659069756      6.32542640978684      8.29799256156347
  C           8.97461672805989      5.48232050744339      9.53272621159413
  O           9.09746155304420      6.34036167442699     10.66833741866239
  C           9.69917946480795      7.58460950997580     10.27830199997262
  H          10.43437202644725      8.25492942515603      8.30443807212260
  H          11.33191374380015      6.87669977098366      9.02134153401043
  H           9.77856145261591      5.71926401528435      7.48306697912034
  H           8.43991351710696      6.83678322529523      7.90920578024976
  H           9.67443593150524      4.62155156226961      9.65685135261378
  H          10.42973486188233      7.87385607115403     11.06092818783118
  H           8.91881182029359      8.38128126837486     10.22562633118950
  C           8.70529198334692     -0.57831251654304      3.07436700941911
  C          10.15708703880760     -1.06196068657366      2.90779609813772
  C          10.34147546972401     -2.06618306115160      1.76695623497835
  C          11.78587183929408     -2.54170171333089      1.60789321025918
  C           8.54471187119408      0.41540951252484      4.19973939390759
  C           8.73442915392722      1.79443812300118      3.98118916125786
  C           8.62629660818946      2.71550275924903      5.02907801248336
  C           8.30778622840515      2.28271404993785      6.33137724751651
  C           8.16142753027359      0.90140224865568      6.56859809163308
  C           8.27028323217297     -0.01353068049189      5.51343068509853
  H           8.36392280769279     -0.12079394144568      2.12070873703291
  H           8.04847439571077     -1.45654966286230      3.25390863601074
  H          10.49999023745571     -1.51339583279931      3.86522321428132
  H          10.81494327326529     -0.17981623318603      2.74257289888768
  H           9.98984570430313     -1.60608974664314      0.81648719514745
  H           9.67430938822923     -2.93998208406893      1.93969924244406
  H          11.89068104053981     -3.26456219356278      0.77412498587914
  H          12.15016480488067     -3.04001139873386      2.53040880599499
  H          12.46935128697904     -1.69162352173706      1.40202232260130
  H           8.96149952895149      2.15361781685228      2.96466409063490
  H           8.76378969831713      3.78981498263822      4.83390090974662
  H           7.95859501756360      0.54615464392013      7.59078340361186
  H           8.13845620917951     -1.08886685495469      5.71413931205383
