66
Coordinates from ORCA-job cat_opt E -3180.850149806315
  Au          5.47751701204035      3.77509440002367     11.25844689360905
  Au          3.50959022436094      4.65005481395532      8.88896889530156
  P           6.77672609605078      4.86581820736500      9.77222807627334
  P           5.04006105945022      3.52069398148883      7.67033096576610
  Cl          4.27628246574690      2.41063798479526     12.65461839361699
  Cl          1.90424153648690      5.82714921698671     10.02583525309849
  C           6.77392749620519      3.82431109742911      8.24918917230843
  C           7.90696384263454      3.21974582489233      7.81206537255915
  H           8.84150728702015      3.48646004393879      8.34564563407879
  C           4.76887109319738      1.73380403529817      7.70771515278321
  C           4.48856072269591      0.94493416311903      8.88402595378045
  C           4.33581672277088     -0.34100296856339      8.43332523810674
  O           4.48697596785561     -0.40190088556835      7.07432649702221
  C           4.74684240274260      0.85607908308315      6.64187340799779
  H           4.39793919805171      1.30057366417803      9.91959227403470
  H           4.10963368805882     -1.28912393164764      8.93091297161191
  H           4.88599128852633      0.98643598795560      5.56414790675465
  C           5.01708341259891      3.95621986149230      5.91600759781546
  C           3.89811689178598      3.77067500543969      5.02255926601697
  C           4.26673241128249      4.35022147791418      3.83574026870899
  O           5.51777801183816      4.88912454492805      3.93207235562263
  C           5.96211888030285      4.65235528298980      5.19295705563848
  H           2.94600485620748      3.28136670595816      5.25461748913987
  H           3.76925244569811      4.46627191687296      2.86774541238315
  H           6.96047864640901      5.02336747325918      5.43512263801872
  C           6.26984910268610      6.50605711443909      9.21237028401971
  C           5.38345416011369      7.41958652598105      9.88775809718459
  C           5.27023987320990      8.50484506643124      9.05920994255956
  O           6.01696880979151      8.32839837168133      7.92566774542363
  C           6.61657923918207      7.11870563622623      8.02276982863266
  H           4.86551794254126      7.24973522875347     10.83765887464689
  H           4.70139517539137      9.43777103066173      9.11475476973791
  H           7.24193940717569      6.81229175597560      7.17877328471747
  C           8.51173884165989      5.03430660195582     10.24487259363910
  C           9.27019890830903      4.09999600595680     11.04134527276688
  C          10.52465236726329      4.64128148703363     11.15861050779493
  O          10.59334250648963      5.83900041003448     10.50284179640124
  C           9.37638573056140      6.07081742525634      9.95296327856975
  H           8.90145311163436      3.16468798861590     11.47748430587584
  H          11.44071693485901      4.32228428455163     11.66558752295135
  H           9.25258650006229      7.01094834170331      9.40657781097547
  C           9.39420100970568      3.65340833648525      5.12395319231597
  C           9.36971730471430      2.37203494205426      5.95793173404488
  C           8.08250390422534      2.14422360973639      6.77498913540817
  C           8.14040209133399      0.78196020809769      7.49985513007485
  C          10.71004306322166      3.88341200500755      4.37762937888504
  C          10.72088376748470      5.16122757136784      3.53492624190253
  C          12.03536434483748      5.40411608319955      2.78741890434239
  C          12.02958347773997      6.68013031309419      1.94513311780239
  H           9.19762895489512      4.52853578963713      5.78663328574064
  H           8.55677181145773      3.63170566948332      4.39214185605881
  H          10.23476237722609      2.37183858033402      6.66010052487273
  H           9.52354479518755      1.49470378480232      5.29303017421961
  H           7.21054438390635      2.14549053622701      6.08901330066293
  H           7.23251896056974      0.60430014945456      8.10661160886455
  H           8.23441967822325     -0.03937962893620      6.76099529878508
  H           9.01983065326538      0.73436806046942      8.17463359836919
  H          10.91890958163721      3.00742899466307      3.72282960884362
  H          11.54856897414015      3.91431775451285      5.10952919992900
  H          10.50442591595811      6.03588855535589      4.19050150622745
  H           9.88225975641283      5.12552662279433      2.80266893717110
  H          12.87018401103765      5.44197903980309      3.52234192258506
  H          12.25094287750200      4.52673699017801      2.13766056834548
  H          11.22648061842628      6.65292299289470      1.17924092455764
  H          11.85323020711786      7.57797998231191      2.57384081416490
  H          12.99181520882377      6.82781779412957      1.41508597788019
