101
Coordinates from ORCA-job cat_opt E -3165.995163818670
  Au          5.51714349482899      4.32425298311613     10.86028745467115
  Au          3.37304697022793      5.27558718586342      8.36765781520421
  P           6.91570478614491      5.55702909975618      9.55903187738579
  P           5.13140956493160      4.33563819860814      7.29997602256207
  Cl          4.30196427882008      3.04157749125426     12.33092814480981
  Cl          1.61534375556863      6.35227799471116      9.38334261168708
  C           6.63957491239775      5.43054188507191      7.66221201358770
  H           7.52781200026767      4.90281098469602      7.25515872544893
  C           5.65936875948251      2.63692690261832      7.95561132686945
  C           4.55464133668520      1.83689231254398      8.68550241704451
  C           3.76697014086523      0.85626847487025      7.81473144881359
  C           4.69704041775656     -0.05959446443549      7.01184463917309
  C           5.67364440135348      0.75848990064257      6.15898208483577
  C           6.49164776788395      1.73775029599563      7.01558521854722
  H           3.09611478467103      0.25888397110865      8.46512259098450
  H           5.06544820899120      1.26005823045040      9.48673791439447
  H           3.87333698230253      2.52968960525718      9.21873227004366
  H           6.33365942616669      2.98903027767413      8.76655024869197
  H           5.27421892576302     -0.69973308978867      7.71688273049328
  H           4.11270764261015     -0.75033216431107      6.36914831057417
  H           6.37056468259414      0.08879755285434      5.61288361745587
  H           5.10064556463010      1.30442902979642      5.38057431672992
  H           7.16013525507176      1.13691621486713      7.67108136129409
  H           7.17693780466435      2.33864992355890      6.37854090537834
  H           3.09518425559137      1.40845525035715      7.12231747791020
  C           4.96800370915622      4.08505181782029      5.42497808208830
  C           3.56042036619495      3.51115801577778      5.12065612876966
  C           2.46255327906442      4.57320405480771      4.98179733343670
  C           2.83398195316776      5.66309511340338      3.97296510927966
  C           4.18390221170043      6.29303880978113      4.33387178512257
  C           5.27749303344648      5.21992729753869      4.42833587646263
  H           1.51224964775754      4.07775962828925      4.69516535963492
  H           3.64619566556806      2.94506614459208      4.16567473055186
  H           3.26413658464600      2.76828321143558      5.88667310120314
  H           5.71710744458788      3.29082625996393      5.23713397461115
  H           2.89493770210726      5.22550444439541      2.95036086720170
  H           2.04269184114742      6.43953298289891      3.93710458790932
  H           4.47684038298714      7.05831499236215      3.58487226814357
  H           4.07562030566821      6.82601765271006      5.30435530047689
  H           5.35288628937978      4.72672083305980      3.43260354374535
  H           6.28097985886050      5.65538087545654      4.60585755509177
  H           2.27680261593370      5.04054488787518      5.97592811795121
  C           6.81491187390588      7.39634258136481      9.98622140970975
  C           5.35337506755961      7.91122926339143     10.05926674109014
  C           4.62156721587237      7.58297935664933     11.36548416326677
  C           5.42368116704319      7.97402052187948     12.60882773121064
  C           6.83021083480316      7.36465304059910     12.56807940242804
  C           7.56229612980541      7.77621224057225     11.28538204193661
  H           3.62600490151618      8.06918169963123     11.34836980884594
  H           5.40647208344136      9.01635405210052      9.93558075714735
  H           4.74501359505288      7.53390381823051      9.20982084393581
  H           7.33040050051649      7.90626776252695      9.14793927709921
  H           5.51181680178787      9.08322878125374     12.66968944561708
  H           4.88837806616908      7.64843442176280     13.52403413918072
  H           7.42373803035351      7.68195706685151     13.45053149434905
  H           6.74896986596978      6.25502144249625     12.62513188593681
  H           7.64538654011694      8.88663631621122     11.27168430948977
  H           8.60675456096856      7.40701015803222     11.27828070909232
  H           4.40464260952805      6.49127149756012     11.40090562813706
  C           8.67955468448223      5.07729013705306     10.00547549488611
  C           8.95488094629836      3.55784537142080      9.99544857176149
  C           9.45632233337421      3.02123942870717      8.65114430766293
  C          10.68141994162926      3.79889967953906      8.16055429873002
  C          10.35561821591341      5.29070959085962      8.03820908394602
  C           9.83663265329725      5.87185012524967      9.36098845205414
  H           9.68673860657288      1.93989852327590      8.74598354394654
  H           9.74059813838091      3.36527695763993     10.75944088311211
  H           8.05509672052765      3.00905474644974     10.34601654805586
  H           8.62544201539348      5.36656898216615     11.07674611351235
  H          11.51891158571592      3.65942101165508      8.88075117189525
  H          11.03606792808807      3.39962785903262      7.18766897645871
  H          11.24922596565801      5.86412083986099      7.71462193783766
  H           9.60188281891498      5.43362187252732      7.23533084602081
  H          10.67633371292136      5.86375943039328     10.09144135486743
  H           9.56595379771738      6.94079974803320      9.23641734729199
  H           8.65432446357577      3.09398609910781      7.88690608608254
  C           8.91077927018090      9.58193721970175      5.61836297470907
  C           7.60569826279917      8.88636349324487      6.01161319020054
  C           7.80579436939245      7.47740590716400      6.57445364803725
  C           6.49237726827759      6.81587183207760      6.99466581442164
  C           8.71692595580483     11.00157070687924      5.07968685692761
  C          10.02365159843706     11.71257141666438      4.72024659098770
  C           9.82969575148532     13.13604551549022      4.18882689960585
  C          11.14092669524083     13.84389116664825      3.84663162420062
  H           9.44421424012488      8.96699403805999      4.85850297785783
  H           9.58742277249030      9.61340821762131      6.50261408965685
  H           6.92504714596009      8.84168532370894      5.13178378761669
  H           7.07172537155802      9.50629672688974      6.76708651734256
  H           8.31570044779049      6.84049996926601      5.81631320599068
  H           8.50741825581215      7.52659353370913      7.43527322868415
  H           5.91919254902994      7.49478530455146      7.65202833424841
  H           5.85363639988099      6.72900562282317      6.10246657048647
  H           8.16481267864775     11.60662593683901      5.83417432809128
  H           8.05557067329913     10.96900039565773      4.18440678642139
  H          10.57706519298935     11.10987058599929      3.96431761124331
  H          10.68389741912788     11.74210312407573      5.61703561329577
  H           9.17512876661982     13.10280176380781      3.28938017885827
  H           9.26809630492000     13.73143013511487      4.94293005923653
  H          11.80008750207985     13.92257675360147      4.73645927896882
  H          11.70684564214168     13.29187134108896      3.06710681917110
  H          10.96746208139217     14.87117347592399      3.46789694087190
