78
Coordinates from ORCA-job cat_opt E -3242.140528654445
  Au          5.73450979777727      3.76541865594228     10.43994279373286
  Au          3.53796490270855      4.67955158761402      8.39554874775406
  P           6.74410447681334      5.39759611670000      9.24770181248835
  P           5.28044018766104      4.03407381325144      7.10869851258526
  Cl          4.82479927892816      1.96382516582533     11.53304962903130
  Cl          1.83709814263038      5.54859925208222      9.66585533906930
  N           6.66578651101857      4.99538896794061      7.55336943213831
  C           5.24539194285708     -0.05344143225447      7.13400201606244
  C           4.59012717639317      1.28233217256422      7.50778583065445
  C           5.77122838512703      2.23570228389804      7.30423047165411
  O           6.53191811038294      1.72161274645620      6.20817834547509
  C           6.16670055181694      0.34478927328220      5.97682596702162
  H           4.51531213510728     -0.83549712254022      6.84929630485064
  H           5.83758420982169     -0.43453637742662      7.99106053574434
  H           4.20934518835014      1.31813564778901      8.54695508509834
  H           3.76185516849086      1.54072500787715      6.81668631066807
  H           6.39948703625390      2.26165255554592      8.23040123685123
  H           7.09403392375390     -0.26270896590218      5.91876771709807
  H           5.64611777868894      0.27106737967173      4.99349520433327
  C           4.99582556469989      3.47765052248872      3.06358638223664
  C           5.92659665541626      3.99645791887530      4.17162098461209
  C           4.92019159425517      4.34848060706051      5.28645051664761
  O           3.75649631358265      3.54270987085774      5.06231194333092
  C           3.92781416197871      2.75377619571662      3.87667895084155
  H           5.51481437289307      2.81940755100967      2.33973515601182
  H           4.54429692948129      4.32114371492785      2.50152674660796
  H           6.52117420873345      4.87329477934951      3.85323276150821
  H           6.61222735030664      3.19624296720681      4.50344676806094
  H           4.63253298475023      5.42534786964040      5.24704076186390
  H           2.94271601650675      2.68614075088725      3.37319559696646
  H           4.25324550870140      1.72105076673414      4.14500307257645
  C           5.39031321349334      8.94496795261395     10.73782964147329
  C           5.43674391467789      7.41316994240395     10.80365326607590
  C           5.95802379053430      7.08978837127956      9.39908453320648
  O           6.82386482714317      8.15928826258581      9.01363899652500
  C           6.63795270599483      9.27028231706597      9.91274268386838
  H           5.39691001361114      9.42753504567643     11.73426283205996
  H           4.47530741388644      9.27370163980440     10.20360655016601
  H           4.45407705307194      6.93931129745061     10.99309619129692
  H           6.15403299866635      7.06043126476949     11.57238881924960
  H           5.10243088609566      7.01378272838816      8.68229429093617
  H           6.54360549002970     10.19760736144172      9.31005834966570
  H           7.54043949143441      9.37388324288470     10.56095970043770
  C          10.40476293444380      6.94303276500220     10.27483325696494
  C           9.50899072012117      6.56000451841416      9.08680653359757
  C           8.55535442076903      5.54395810611241      9.74213630907767
  O           8.47198443925384      5.89623854020618     11.12810167674716
  C           9.40028968119227      6.95079566629984     11.42379159013636
  H          10.91392744513533      7.91653942518919     10.13463328031206
  H          11.18189300985141      6.16953392224406     10.44668588525835
  H          10.07214893445476      6.11970775983450      8.24292381460293
  H           8.94414448330285      7.44129715155808      8.73013483727615
  H           8.95037346676180      4.50435917443348      9.64777610375616
  H           9.84798064091065      6.74101828492569     12.41611818540669
  H           8.86150525192405      7.92554129931247     11.48529778962846
  C          10.91870844648826      3.69109564582741      5.10872924782001
  C           9.82704499614911      4.75046259318666      5.33852763170316
  C           8.78996467782944      4.33126454816500      6.38031213133697
  C           7.71102342649732      5.39440985607261      6.60109225305592
  C          11.92402624270596      4.10821463140278      4.06100570823996
  C          13.08198800597331      4.82951663613472      4.41500949373738
  C          13.98823903223705      5.26596061625447      3.43712038403195
  C          13.74950125541359      4.98842413254087      2.08209735363634
  C          12.60051458801058      4.27064563010310      1.71440882565191
  C          11.69786416768855      3.83662397598454      2.69640439899483
  H          11.43755112477004      3.49053091684311      6.07057903389371
  H          10.43564845663333      2.73644773220967      4.80919755014331
  H           9.32248030663121      4.96313795468272      4.36981980716333
  H          10.30755481167864      5.70876261641871      5.63866892571614
  H           9.29125009323103      4.11560850160924      7.34941616029504
  H           8.30761380701434      3.37604064218194      6.08128028013360
  H           7.23700922147540      5.65632546205352      5.63416085635603
  H           8.15551284892952      6.34451628513038      6.95743430150557
  H          13.27778957970246      5.04611219769865      5.47781686823076
  H          14.88966433558556      5.82288668089615      3.73550407745292
  H          14.46089542469607      5.32684374299638      1.31365220667959
  H          12.40842865454564      4.04283784833152      0.65468127630210
  H          10.80033070346574      3.26874587030672      2.40179717661709
