64
Coordinates from ORCA-job cat_opt E -5283.971719737049
  Au          5.85306699003768      3.91711263625780     10.69288961654979
  Au          3.74702748376604      4.71644852336723      8.48631573333322
  P           7.07580132761316      5.24498290478881      9.33139356706288
  P           5.45706059321402      3.85282194369228      7.28414333665676
  Cl          4.77586828057615      2.39219535947203     12.02642553522569
  Cl          1.99968452505349      5.75997113673726      9.54557223735879
  N           6.95922492488743      4.63221234319005      7.70752408379998
  C           5.72141697651393      2.03408406965371      7.54693039719091
  C           5.88471174634425      0.93250914312678      6.45814552184074
  C           5.11075853401074     -0.02364137323259      7.40138675430079
  C           4.53950667770153      1.21566436309142      8.13883675269528
  H           6.57585398148505      1.99866596283131      8.25595643580780
  H           6.91717584267396      0.66675551589708      6.15329522788209
  H           5.29414972310402      1.14814059996680      5.54681932596506
  H           5.80003952061462     -0.59758448952659      8.05256361076986
  H           4.39148353964173     -0.72753467043333      6.93884249392327
  H           4.44758800876535      1.20279511219409      9.24267537443362
  H           3.56864890929189      1.54108182195175      7.71043697076113
  C           5.19495751036301      4.22979278201407      5.50019169528860
  C           3.90491073368731      3.62262637631355      4.87229271809689
  C           4.69007939517768      3.42446839265452      3.54773455767048
  C           6.02260912116267      3.66471067440393      4.30598540652332
  H           5.15398835167256      5.33841290111873      5.46288964009574
  H           3.01581438256324      4.28139761399858      4.86514601169798
  H           3.61120791901748      2.66393810738276      5.34412626942161
  H           4.48073810326873      4.22723067414573      2.81367684601161
  H           4.57256232099944      2.44836616221556      3.03747992940012
  H           6.73875082552449      4.37264012709471      3.84409959147273
  H           6.55561434536456      2.72427020371991      4.54480241071101
  C           6.68040755958140      7.06182770916181      9.31637543299799
  C           5.67240170523146      7.57923188873194     10.38571063909806
  C           4.96383419931326      8.41221438350260      9.28735580502151
  C           5.74932659550523      7.62610141435473      8.20442210670871
  H           7.64166718046267      7.61462699375787      9.35584159894025
  H           6.11131777396507      8.12099562246490     11.24668000212655
  H           5.02809375705541      6.76417965458806     10.77494772050692
  H           5.22945875247248      9.48737173791799      9.31596505744353
  H           3.86221116704695      8.30811785370060      9.25041073912999
  H           6.24752806660185      8.20183273145830      7.39939690281010
  H           5.12822343348638      6.83294046650759      7.73792169611749
  C           8.86381133342736      5.12534668840499      9.77048940462222
  C           9.19757660430988      5.59831923899034     11.21614031937152
  C          10.55334795946839      6.13112095706746     10.68287352228021
  C           9.98404500281355      6.07043622519554      9.24253017586113
  H           9.13844403007844      4.05793946648634      9.64009384771420
  H           9.19751912155439      4.81914465094940     12.00189889057147
  H           8.52897373176539      6.41933381234442     11.54878592650249
  H          11.37062226799306      5.39800318047551     10.83332504364065
  H          10.89471337471453      7.11721741980842     11.05412687215810
  H          10.63678727683378      5.67433179529316      8.43895848458725
  H           9.58877361475015      7.05262225468086      8.91278227763434
  C           9.33437966558845      7.15716300992481      4.02482054474674
  C           9.32994613450992      5.95458186456630      4.95487926118840
  C           8.22355800634386      5.98442787507545      6.00962867244445
  C           8.08517872095227      4.66275533918208      6.76790094320706
  Br          7.70429544676612      7.25003936020064      2.91355275135154
  H           9.36631562214985      8.11614680528739      4.57640701315322
  H          10.17268293127013      7.12600629418159      3.30551671842027
  H          10.32833591370902      5.91593077977244      5.44807973996310
  H           9.25375740899553      5.02701210650455      4.34658711884815
  H           7.25637837928022      6.21700069101742      5.51927954315228
  H           8.40912724468018      6.81093891126605      6.72889114224593
  H           7.95528231401674      3.83315635350114      6.04192003246670
  H           9.02732310920912      4.42729254558844      7.30687400101852
