62
Coordinates from ORCA-job cat_opt E -2978.000540840250
  Au          5.82736679806758      4.64257711817726     10.78276502185400
  Au          3.33225266026385      5.09537838085016      8.53201297175399
  P           7.03937443414438      5.37384821218616      9.01973245971728
  P           4.88333301533922      3.79009627856357      7.53387773243660
  Cl          4.69040983706969      3.82420748881739     12.59418907390196
  Cl          1.72869925344382      6.43056928544756      9.46940293773336
  C           6.47418276602761      4.68682234197922      7.38805587893445
  C           7.07139473187989      5.14082161784957      6.24954281867987
  H           7.97117937254158      5.76453718947440      6.45031933163751
  C           5.13115018612536      2.19943731958189      8.48190715069956
  C           6.31155900479246      1.27801343266725      8.09645878475255
  C           5.61807291627644      0.05611979335384      7.43590367246559
  O           4.26861896313293      0.44155653297031      7.18890730953663
  C           3.90964031085166      1.27468102572070      8.28206714313911
  H           5.20181543596205      2.54870576462110      9.53425476389483
  H           6.86925194367371      0.97606125995140      9.00388834413357
  H           7.04071025296147      1.77941954200366      7.43027669208105
  H           6.07023108250718     -0.25066613861866      6.47193874567801
  H           5.64717704618105     -0.82073206008022      8.12457671376940
  H           3.74668485904046      0.67800688568962      9.21157107332247
  H           2.96088413605188      1.79797773252262      8.04678179733502
  C           4.40516977573953      3.31402925075454      5.79853862842489
  C           5.38133396003130      2.36826269829813      5.03870764561199
  C           5.65808858486982      3.09958505551776      3.73093840943205
  O           5.51653022425438      4.51104938690527      4.08093171488609
  C           4.31340579225978      4.57145751510264      4.90892183488233
  H           3.40608125408073      2.84912991070646      5.89851627885492
  H           4.93028349473491      1.37186272000022      4.89073426999614
  H           6.32686749809319      2.23624131720179      5.59463081978843
  H           6.67114124307214      2.97303085633136      3.31387186434601
  H           4.89708265063473      2.89430052820376      2.95121762686067
  H           3.44751694214627      4.53428114344699      4.21980579747325
  H           4.31733534605161      5.54491047787087      5.43336754665328
  C           7.00833458216727      7.22253392931563      8.78697503703946
  C           6.87682268629927      7.99173504630737     10.13374315068115
  C           5.46925280764472      8.60483022097421     10.02462112286968
  O           5.31549621893289      8.88169231733051      8.63875382779697
  C           5.76107795570575      7.71553581544150      7.98320783730820
  H           7.94499118340316      7.49696082222093      8.25990860193654
  H           7.64845296840594      8.78423550975124     10.19090554378282
  H           6.97495482387506      7.34213635796081     11.02726817680288
  H           4.69734174815957      7.87489558480970     10.37027311272877
  H           5.34574282889344      9.54878162028663     10.58920422587729
  H           5.99041092451589      7.95222828780765      6.92661345711054
  H           4.96289824488368      6.92797947114475      7.99901725889406
  C           8.83763639369649      4.92990985539004      9.11641120190929
  C           9.04657750075333      3.40217646727716      9.26731353969819
  C          10.07040207903325      3.31291856455502     10.41096715663407
  O           9.76657888047005      4.41463125183841     11.24925162822291
  C           9.53918711949521      5.50969225537701     10.38681809655793
  H           9.31926811965924      5.31878755255868      8.19561231615487
  H           9.38437898333276      2.92446386894568      8.32782833344988
  H           8.10204419081518      2.91626973507205      9.58545720565989
  H           9.98902586704642      2.38751610870326     11.01330633153151
  H          11.11394482253531      3.38610733563581     10.01232024278848
  H          10.50129631692471      5.98848685527275     10.07923250839211
  H           8.94228200607882      6.25965993741697     10.94132887608225
  C           6.59583250616089      6.78337281174872      4.34709377347793
  C           6.40014609985086      7.98181631339919      4.15405096891023
  B           6.82933069682724      5.26894858564545      4.66735611574244
  H           6.23408692994326      9.03318126451243      3.96001920069420
  H           7.74853447621070      4.76236107252526      4.02502714076423
