69
Coordinates from ORCA-job cat_opt E -3019.689031396942
  Au          5.85405473338521      4.60013472525190     10.85726373467769
  Au          3.34130225152185      5.11377855945119      8.63484342519394
  P           7.06238664124886      5.30436342356836      9.08012721534492
  P           4.85526365894552      3.77491147639595      7.62214848385315
  Cl          4.71634279101080      3.81193943445099     12.68192110454153
  Cl          1.78665430272591      6.50441857763951      9.57619562666652
  C           6.45689777229884      4.64645948610372      7.45368792424755
  C           7.04055527725747      5.10282767566570      6.30547035934352
  H           7.96263304479612      5.69341754322059      6.51124819806699
  C           5.08709355676945      2.17649547939626      8.56057372212166
  C           6.24542247889449      1.23840603633211      8.14936232310124
  C           5.52115269743238      0.03477956453031      7.48869423603151
  O           4.17478447159870      0.44489278015176      7.26643043016301
  C           3.84690631718948      1.27476463665482      8.37167988001335
  H           5.17896803142201      2.51707880380158      9.61402426141826
  H           6.81169907046306      0.91836049986849      9.04520525775540
  H           6.97231109001567      1.73420662801259      7.47656915000766
  H           5.95300041160848     -0.27016790676917      6.51493498871658
  H           5.54623014745731     -0.84901079143822      8.16871422525613
  H           3.68697089421105      0.67306878181234      9.29853829156805
  H           2.90438764830851      1.81691190927726      8.15457193749022
  C           4.34628761307071      3.31500455182568      5.89210095630059
  C           5.29751204492121      2.36617432962966      5.10647096829581
  C           5.55852076598349      3.11067131411160      3.80232368761399
  O           5.45269800971064      4.51689652218331      4.17631910575899
  C           4.26708667442741      4.58566551679809      5.02060721188422
  H           3.34104580605032      2.86547617421731      5.99941394194628
  H           4.83258473010528      1.37661024404868      4.95559546130847
  H           6.25222688965465      2.21901371418319      5.64263601643403
  H           6.55991120731701      2.97096451627495      3.36247083051127
  H           4.77707700727216      2.92718203250682      3.03663887307396
  H           3.38779352838927      4.57749365360806      4.34684499511533
  H           4.29335737456673      5.54537009783955      5.56807651885117
  C           7.07810158090624      7.15717698316104      8.86805563422805
  C           6.97270610864639      7.91533259852234     10.22305004724442
  C           5.57200001087202      8.54623065031310     10.13850419850114
  O           5.40879610689235      8.84737248539150      8.75784283762047
  C           5.83711058037252      7.68940806995137      8.07884258149096
  H           8.01845625060077      7.41467176474529      8.33908324285948
  H           7.75390994414962      8.69864941858295     10.27683655115074
  H           7.07548348002748      7.25549843492792     11.10842584716780
  H           4.79376887149811      7.82120805648134     10.47968765593995
  H           5.46499024221497      9.48305862081924     10.71793863464377
  H           6.07123292050832      7.95223208938769      7.02935871518373
  H           5.02775931964481      6.91369786975545      8.07233094753758
  C           8.85151582971161      4.81926195866633      9.14963233599704
  C           9.02933058807076      3.28773326292387      9.30272037636185
  C          10.06568720184369      3.17885868917978     10.43362072254304
  O           9.80124395924736      4.29213413979619     11.27003863221876
  C           9.58988055905832      5.38735673300119     10.40408174094540
  H           9.32437026517400      5.19387589142984      8.21834007562742
  H           9.34554814336258      2.80046651364230      8.36065326211646
  H           8.07882549681354      2.82242486958040      9.63312129240312
  H           9.96926124902443      2.25882664066313     11.04191785551099
  H          11.10539700148152      3.22401493228954     10.02104190857154
  H          10.55987026786255      5.83721286189636     10.07750619906871
  H           9.02429377899358      6.15757668373076     10.96344118050259
  C           6.65184316499737      6.82577933166736      4.33249427804684
  C           6.84093268042493      7.18204755791778      2.84678975269798
  C           5.80727406080587      6.58650768737095      1.88777950309807
  B           6.80573418319581      5.25789337214460      4.73348189930724
  H           5.66826084168040      7.21868137878865      4.68486137581574
  H           7.40194759239289      7.39812058322250      4.92225893003026
  H           6.82680491622243      8.28902907468696      2.73652103754976
  H           7.85761673452904      6.86294399830333      2.52736706048485
  H           4.77125625523215      6.83510619900198      2.20327954802340
  H           5.94238562247126      6.97740520829136      0.85879043824615
  H           5.87831744558849      5.48159116308352      1.83202887511355
  H           7.69982793287568      4.68874375266527      4.10054670363947
