53
Coordinates from ORCA-job cat E -2837.761670180584
  Au          5.74324897029509      4.34322419937239     11.70147216625520
  Au          3.50734054643832      3.74190959982333      9.38943083196120
  P           6.77871167415517      5.07014856022242      9.83921769013059
  P           5.17550828999680      3.31080427849033      7.92794502027489
  Cl          4.90525340930137      3.54767826726558     13.67123948271509
  Cl          1.68719374587565      4.26268038659060     10.67614673014145
  C           6.87465268112581      3.70998223563506      8.56692905060414
  C           6.02593868089224      6.46188297057773      8.92266529670390
  C           4.83163096494040      7.02940947166827      9.40768701934132
  H           4.38985500570462      6.65723440219681     10.34525206017111
  C           4.20015394523348      8.05283818734448      8.68394967308398
  H           3.26279241908942      8.48505038044205      9.06389769950183
  C           4.75922158669213      8.51372469982385      7.48322274976090
  H           4.26038695548055      9.31395458438454      6.91565778405367
  C           5.95192439038466      7.95118371417043      6.99761842489917
  H           6.38505847212636      8.30209114630653      6.04940522175302
  C           6.58295730975454      6.92517315298914      7.71137676329213
  H           7.51064661823640      6.48260800048785      7.31753600557788
  C           8.54443383558770      5.50586295997469     10.09575896450825
  C           9.03565652078827      6.81373987022981      9.91985742315349
  H           8.36388029041443      7.61560797642522      9.58115561307245
  C          10.38430519919745      7.09819138509544     10.18637392485615
  H          10.75953203851503      8.12367414431211     10.05014009759237
  C          11.24772207117789      6.08503826657682     10.62788655939866
  H          12.30409603516985      6.31194414519405     10.83616200284185
  C          10.75750848687068      4.78240886526915     10.81865929215259
  H          11.42530672850725      3.98717749975410     11.18241674299387
  C           9.41077812768274      4.49448574804089     10.56366607316561
  H           9.02542806540955      3.48007062271189     10.75325606957580
  C           5.30170215652018      1.57401176415285      7.35310191852587
  C           6.51059634503375      1.00646135995834      6.90102175851792
  H           7.44409920021166      1.58934110427956      6.91094002153457
  C           6.53568506739556     -0.31875473833324      6.44273277444378
  H           7.48315673841045     -0.75821676985180      6.09625074307009
  C           5.35813300798533     -1.08297114977824      6.43151347025349
  H           5.38187008623594     -2.12382028115325      6.07521439347874
  C           4.15400524977315     -0.52300030506761      6.88596213733078
  H           3.23136313310904     -1.12219897535713      6.89139048557461
  C           4.12412021714743      0.79946237856920      7.35023327583406
  H           3.18692900131088      1.23786899453155      7.72887626362658
  C           5.03440334970287      4.31220794846443      6.39076508023578
  C           3.92540071191633      5.16283135025091      6.22929666401127
  H           3.16539062981640      5.21588426799481      7.02493916464200
  C           3.80750986873732      5.94921793100593      5.07359450242208
  H           2.94123125274487      6.61747232373952      4.95831844407430
  C           4.79166356148639      5.88879376870669      4.07645829294519
  H           4.69854654724783      6.50766373442300      3.17115568669420
  C           5.89517894255423      5.03207260794491      4.22967832468440
  H           6.66369647538141      4.97435535086579      3.44411398485829
  C           6.01504499232781      4.24237650805898      5.38059460480230
  H           6.87443192049282      3.56178582299724      5.48300870825166
  H           7.57023155613140      3.97886418857665      7.74706858919830
  H           7.25962134328269      2.81086158364504      9.08795862745675
