54
Coordinates from ORCA-job cat_opt E -3843.000928045671
  Au          5.50737438200686      3.76592801636577     10.33349064117369
  Au          3.51689030938244      4.84759902213341      7.94980839029967
  P           6.66426748401041      5.41687236194520      9.30194595988064
  P           5.33820068069561      4.09459885435360      6.84708170530786
  Cl          4.40344532762635      2.06482773784727     11.40195014291134
  Cl          1.73463280267503      5.73091985878131      9.08547657252901
  C           6.82327709906632      5.11796636498348      7.43819306231756
  H           7.73467077449073      4.48976210850339      7.29039257104729
  C           6.71412035804524      1.60065169218994      6.30924588602578
  C           6.29243344306289      0.55886470940313      5.56123113371873
  O           5.04101353540978      0.01178576557251      5.62900481188246
  C           4.23883383568225      0.46085217814530      6.65007383171112
  C           4.54752603699178      1.48821104629112      7.46430589282305
  C           5.81020733382292      2.28595147476638      7.28624868370856
  H           7.75675461607736      1.92851173620579      6.19280152410892
  H           6.91913598873307      0.03410647235911      4.82746306278835
  H           3.32587110967720     -0.14388573912885      6.73689474874466
  H           3.87393788598905      1.73310774487508      8.29913958281753
  H           6.30333443883646      2.43528268681481      8.27893517893563
  C           4.18862660333507      3.33020647289690      4.44108526496863
  C           4.45752111491946      2.34757439634235      3.55969003177682
  O           5.69273237285680      2.11492068120985      3.00210499131883
  C           6.67099336184121      3.02058349105891      3.30722254381816
  C           6.53879778357030      4.02342905640773      4.19743020224401
  C           5.25835066309714      4.25906844718288      4.94985339363290
  H           3.15747085718886      3.44625535850535      4.80558061674472
  H           3.71083951123257      1.63753971178985      3.18014637859587
  H           7.58515807375493      2.82986881765176      2.72719267430358
  H           7.37733484451523      4.71969571587301      4.33554956206148
  H           4.93407969898912      5.32061064744487      4.85993957368614
  C           6.78185298252070      8.29898293902278      9.50409901215552
  C           7.10628981093707      9.00647868582192     10.60615096706139
  O           6.60919096949022      8.76380310560850     11.85901088912306
  C           5.57403599658766      7.86466940230951     11.93331752814798
  C           5.15235341242319      7.10362101676762     10.90430092841788
  C           5.84819729531592      7.12856854685644      9.56979677606215
  H           7.21098254238943      8.59942943448343      8.53941028614864
  H           7.79518240543983      9.86201676490566     10.60844680815497
  H           5.11002803443845      7.86874008950735     12.92918580338913
  H           4.26657631850997      6.46379525361303     11.03353041286416
  H           5.10036034767918      7.14517477350334      8.74605275051816
  C           8.51291479686200      5.76222266023178     11.36484192054392
  C           9.15709803551556      6.84435972741352     11.84164062870587
  O           9.87721747862475      7.72532853337726     11.06909719642380
  C          10.02749623832009      7.38941838188568      9.75325876445157
  C           9.42073938469385      6.34476596490158      9.15441947878386
  C           8.47653896535575      5.44090306312376      9.89539161940751
  H           7.97919782789037      5.10750912988151     12.06925138529642
  H           9.18414306575290      7.13098961201292     12.90116135420033
  H          10.71916546906049      8.07391518820014      9.24212605060140
  H           9.65875970113788      6.15337870695151      8.09845873810443
  H           8.73423170891740      4.36685015263841      9.72867926668761
  Cl          5.46745853004974      7.59354519327009      6.15147020808353
  S           7.27206035450443      6.57015178494068      6.42812661078296
