46
Coordinates from ORCA-job cat_opt E -5613.772940565156
  Au          5.92065131494506      3.39532566056687     10.76494602452723
  Au          3.48377531974597      5.57969720009641      7.98041308811723
  P           6.89069658700240      4.97141490253662      9.50059078678631
  P           4.99828018916359      4.11382281735468      7.21649432102690
  Cl          4.95731632575195      1.69061454817264     11.94048952442076
  Cl          2.00259995016297      7.14381263343298      8.74214316360719
  C           6.81305067965696      4.42539062867634      7.70599813096149
  H           7.22598231983136      3.38592285039356      7.72309682240639
  C           4.80825358644478      2.35662328682175      7.74359506293025
  C           3.54297603668048      1.84568040726984      8.09440645540146
  N           3.39766978610621      0.58858645318138      8.53065384086698
  C           4.51299096690562     -0.14440486002520      8.63566132626022
  C           5.77722778635425      0.36046910986568      8.27460393340520
  N           5.92064353487953      1.61134950248232      7.82363163903627
  H           2.64059076428674      2.47960645269458      8.03126942256723
  H           4.41075784876523     -1.17147635531013      9.02628810147463
  H           6.68709635382518     -0.25596085529111      8.36701119237493
  C           5.17990718929542      4.02655503088874      5.38184005668312
  C           5.30433749542743      5.22504446022814      4.64500263260241
  N           5.50624504837448      5.20638486455380      3.32215814282525
  C           5.56065822157126      3.99848223329479      2.74078523508728
  C           5.40158337055986      2.80793436105816      3.47355382974555
  N           5.21920052210729      2.82115875453920      4.80129502996403
  H           5.24326000128160      6.20611891781379      5.14794472921996
  H           5.73132123548442      3.96961517212934      1.65012544768656
  H           5.42656144922575      1.82327802678249      2.97513980723764
  C           6.19417612009683      6.66923063249158      9.51936664235736
  C           5.64189279662549      7.19929179436514     10.70220715933115
  N           5.10974925272544      8.42728874299676     10.72852269871001
  C           5.11326492641186      9.10861402825740      9.57639751167276
  C           5.67595045927310      8.58197836784221      8.39652194585491
  N           6.22188676537156      7.36228654777550      8.37258270472593
  H           5.62045733636578      6.60809428336316     11.63481331169077
  H           4.64828469537851     10.10948436146565      9.57709990088764
  H           5.66836483605455      9.15514816204109      7.45405632159693
  C           8.70703274638319      5.23936883618111      9.71631378303717
  C           9.58614530002171      4.13545108942952      9.73159350388960
  N          10.90971334250452      4.30128240630036      9.83772072376208
  C          11.34859294341445      5.56448899862600      9.95170740380787
  C          10.46760676188603      6.66098594616590      9.96983933183485
  N           9.14277317006857      6.49795042023059      9.84511841685349
  H           9.20247980921405      3.10097061888453      9.66177678398132
  H          12.43896404216573      5.71508047611655     10.03806761164214
  H          10.84202914375261      7.69279705307701     10.08587374546002
  Br          8.68700408467742      4.42007513609601      5.63221628087014
  O           7.49637158377192      5.30935789408561      6.87803547081029
