72
Coordinates from ORCA-job cat_opt E -2736.707947064465
  Au          5.54553559769606      4.00918925108519     11.02219416279772
  Au          3.42969807980191      3.97708618396097      8.88452185713523
  P           6.62695737945722      5.36142465668882      9.53711226071260
  P           5.07525621312841      3.65184407718919      7.33076321289106
  Cl          4.79233545117585      2.63741117847639     12.70528960011287
  Cl          1.59425137594564      4.38459428399206     10.20770365707716
  C           6.66938603319149      4.67598915034645      7.75249566246149
  H           7.42372712124563      3.87167833511543      7.88365400972120
  C           6.11892129040605      1.49250760131260      8.78802159057894
  C           5.72015857195662      1.83730897789309      7.34151386702086
  C           4.56877974572062      0.89433605551231      6.94641895761562
  C           6.93451311197433      1.61066838772615      6.42588819163298
  H           5.27053954006990      1.58952575391879      9.49291829958085
  H           6.46841922563676      0.43888006100369      8.81373001648131
  H           6.94588836295717      2.11814461086667      9.17232436246878
  H           4.89182099818372     -0.15070504107348      7.13462497186809
  H           4.29566366505395      0.96499551526320      5.87702865414389
  H           3.66574916683445      1.08036277025452      7.56202508394840
  H           7.23415032907935      0.54381590413250      6.49308148705878
  H           6.72887733555676      1.82856827723938      5.36278294008530
  H           7.81629259762519      2.20277551397145      6.74131946041373
  C           2.80301305353587      3.47795509000545      5.71320589498490
  C           4.24254253832604      4.03499865409107      5.59836296528221
  C           4.10723109270402      5.55545619766507      5.40281608568491
  C           4.90042439929344      3.41440671256519      4.35579285821879
  H           2.23537890328408      3.97618527897567      6.52427881885164
  H           2.28487342110062      3.67712153537232      4.75147020616372
  H           2.76357753162049      2.39068849439537      5.89627136858847
  H           3.37469418728505      5.73208713681075      4.58768337522993
  H           5.04985062743999      6.04129818267035      5.09052936897377
  H           3.70942494793587      6.05152157527259      6.30826722978968
  H           4.28376329028390      3.68404222714702      3.47280971337800
  H           5.91664506226869      3.79729778002143      4.15310712930991
  H           4.93359243822206      2.31001698085063      4.39769200085158
  C           5.39182007289692      7.39065402113656     11.00148027503194
  C           5.91907871673389      7.15173448076634      9.57014754753533
  C           6.92553584980716      8.25212233857787      9.19723887773437
  C           4.72224288813187      7.22214364682157      8.60992618474333
  H           6.18323639532310      7.32275631762220     11.77017550145006
  H           4.95896165927654      8.41203987149849     11.04796353166977
  H           4.59573261676347      6.66669000838637     11.26656577572958
  H           6.39420434480088      9.22705122493116      9.21071233069333
  H           7.34426743470218      8.12467608235668      8.18070559878681
  H           7.76119347315611      8.33117498242324      9.91778915652561
  H           4.20703984243102      8.19450555964449      8.75593052680581
  H           5.02915349103082      7.16629815712465      7.55027287048503
  H           3.98066265424253      6.42008742170483      8.80985281253052
  C           9.49781570615722      6.06252396672630      9.21999740033521
  C           8.47639423873694      5.33193628441116     10.10704144180127
  C           8.51143848551039      5.92096182365174     11.53163717999983
  C           8.88663087830286      3.84794731687090     10.19540952369260
  H           9.26387565639610      7.13034316014464      9.06624449391387
  H          10.48920727235164      6.01321927095357      9.71837022076977
  H           9.61611008389749      5.58067853970753      8.23372188108880
  H           9.51856914662413      5.74426719413089     11.96395168252201
  H           7.76650296269499      5.43300642804722     12.19338997751587
  H           8.33577763177332      7.01358743348576     11.54454119750784
  H           9.91370026297820      3.78538706014706     10.61150392168466
  H           8.20888427629214      3.27378705813441     10.85882988558394
  H           8.91164956075062      3.35252690911349      9.20317383407299
  C           7.21610438878993      5.66699015862850      6.70977067771988
  C           7.91730355577221      4.99691808161408      5.49741585834336
  C           9.36152618277613      4.55026920629461      5.79098681405997
  C           7.86226737737214      5.87369625319810      4.32597066304594
  C           7.80782146447618      6.62170503558773      3.35974309692523
  H           6.41165677158236      6.32885053776485      6.35096694823186
  H           7.94907636275431      6.34047442714884      7.19198178271030
  H           7.33836282765796      4.08291767784855      5.24750176937190
  H           9.40310790858290      3.88646411528057      6.67811650687325
  H           9.77998699998945      3.99127637679236      4.93219610398693
  H          10.01437804781288      5.42502958371707      5.97963720561699
  H           7.76278382467303      7.27645263688684      2.50076362178894
