81
Coordinates from ORCA-job cat_opt E -3152.434571384494
  Au          5.40997163797390      3.89699041605395     10.42700390243479
  Au          3.58721367057773      5.23184249337780      7.93750323773493
  P           6.82488135200946      5.11295209720596      9.14672235562447
  P           5.12367167461571      3.89388412141676      6.96409569114026
  Cl          4.01551398233314      2.53190951881702     11.64001669480921
  Cl          2.16651535655196      6.73488973396365      8.93837771234917
  C           6.86386882863490      4.51348587475350      7.35878525751360
  H           7.51369113441005      3.61020567455519      7.36805937850998
  C           4.14704786442083      0.03970001335069      7.93916058813921
  C           3.74119512655512      1.51545323748440      7.82269073309822
  C           5.11851306431271      2.14575670263875      7.61447862129209
  O           5.85529977658368      1.25220648365605      6.78257415507541
  C           5.31689292823570     -0.07831752220129      6.94843034185306
  H           3.32174944292929     -0.66072865346315      7.70724060482923
  H           4.48665548084654     -0.16530524741076      8.97477213249656
  H           3.24709552783324      1.90495777007873      8.73362131215716
  H           3.09172719478493      1.70839562048451      6.94578172748709
  H           5.61445936913846      2.25231843886308      8.61586266914562
  H           6.12211449942445     -0.75321205897660      7.30980945885682
  H           4.98593661892558     -0.44599479316034      5.95056245979604
  C           5.22012276488777      2.30812690552626      3.21902666368346
  C           6.04001597500728      3.06953848062660      4.27373460208159
  C           4.93609318636075      3.77445006380899      5.08693776070845
  O           3.71820644277361      3.06167505386462      4.86628099777390
  C           3.96777242287628      1.93892571671916      4.00947152375818
  H           5.75441062600519      1.42676885075674      2.81377108661531
  H           4.95666392698471      2.97276648702694      2.37045328478086
  H           6.74688878317899      3.79397043367404      3.82832918049818
  H           6.60006998860538      2.36050698114133      4.91122225565245
  H           4.78806216775304      4.82510919234441      4.74981269948809
  H           3.06488990314956      1.78906610921216      3.38434384011503
  H           4.13354902013039      1.01915952007939      4.61622728646969
  C           5.96620498465370      8.96212372470546     10.17990240714278
  C           5.75773600210867      7.45627192809090     10.37992597754317
  C           6.34331647198548      6.92171524059338      9.06926445591733
  O           7.43445380498171      7.78204616802143      8.72619733648534
  C           7.32286767975684      9.01358282926877      9.47260347836560
  H           5.95665632495154      9.53366600324307     11.12792856139139
  H           5.16606230131489      9.36722683877761      9.52695311060848
  H           4.69556581505225      7.16808116312124     10.49997205866170
  H           6.33785242642968      7.07221847831902     11.24344276696614
  H           5.55866798419743      6.95392578063639      8.27146717650400
  H           7.42445282290374      9.86352411885342      8.76612858883857
  H           8.16409675521378      9.06775368795594     10.20197769590533
  C          10.66717579641119      6.08851472720264     10.19294887956836
  C           9.73808937608023      5.69487818356270      9.03437479622673
  C           8.58810550168879      5.00694348996596      9.79093269005145
  O           8.55169427787863      5.57542197843646     11.10161391103306
  C           9.65824084514877      6.47261511611756     11.27333133759986
  H          11.35949730151586      6.91244796701521      9.93131247339017
  H          11.27396835781755      5.21996978782031     10.52326673878156
  H          10.21600497043190      5.01712135130229      8.30261901616454
  H           9.37215994500496      6.59750503361025      8.51211044130715
  H           8.77035435227602      3.90790114715391      9.87173074746630
  H          10.03806269310047      6.35180527742544     12.30799462267981
  H           9.31726755298354      7.52717567351440     11.14879275820635
  C          10.45515729289422      5.67336445794666      3.87143433903239
  C           9.16731841244973      6.10607536129964      4.57622000310118
  C           8.66442807452353      5.09333385622727      5.60571683029270
  C           7.40120767791993      5.55454012922535      6.33932114223942
  C          10.97710698119002      6.68888416745615      2.85215739122055
  C          12.27197575490151      6.25903194095586      2.15838177235891
  C          12.80209896380470      7.27716977584598      1.14431660839466
  C          14.09743033360419      6.83890681646122      0.46036354584289
  H          10.28767752196054      4.69502892876099      3.36628372974529
  H          11.24284737583778      5.48104313968124      4.63495900519509
  H           8.37244940505266      6.28888131142341      3.81734381521449
  H           9.32935962445071      7.08731335062956      5.07662320543155
  H           8.48088765543815      4.11588332575941      5.11064890884183
  H           9.46626213647964      4.89930839079750      6.34952931143328
  H           7.60823829823804      6.51996234814751      6.84452173033513
  H           6.61345637751497      5.80066560232919      5.59609213823858
  H          11.13807732795640      7.66736330757674      3.35899665473376
  H          10.19246518437219      6.87813688188821      2.08486810595019
  H          12.11012060440395      5.28196007658540      1.64844333997278
  H          13.05412039351435      6.06529982191509      2.92761445477748
  H          12.01885521484158      7.46853715652412      0.37716233944400
  H          12.95992675197746      8.25232071026599      1.65696680135708
  H          14.90870356968919      6.67524091889126      1.20038755569023
  H          13.95956092364253      5.88533028314977     -0.09123569973147
  H          14.45614706064236      7.59558452927307     -0.26605727188658
