86
Coordinates from ORCA-job cat_opt E -2894.893583372032
  Au          5.74418805278172      3.99025008425129     10.93140000516059
  Au          3.32728426244068      4.36835506681220      9.23308455863177
  P           6.87757368921950      5.06772681596042      9.27092600910826
  P           4.65500458240061      3.61287274477963      7.52449879155541
  Cl          4.88423639828438      2.74834964928931     12.66305388481529
  Cl          1.73740258252171      5.20143131395291     10.67223919417960
  C           6.38919799326587      4.32728949486106      7.61838503735114
  C           7.34904706612133      4.26961471956294      6.65575189828369
  H           8.27614924069831      4.83217720659976      6.85973953253813
  C           4.79843142455870      0.99046853862214      6.20568062263202
  C           4.75946940574460      1.67875379406496      7.57821559050488
  C           6.01381625743052      1.30574788461814      8.38140826458075
  C           3.51565561678856      1.19290870539541      8.35182256181879
  H           5.69198598182934      1.25637235988875      5.60916495653995
  H           4.83962433532042     -0.10694559856502      6.37010737674017
  H           3.89450881926182      1.19208535472147      5.60017599837471
  H           6.02304691514428      0.20718189878227      8.54048613125076
  H           6.01321601368359      1.78795253584419      9.38130306931276
  H           6.94700851367508      1.58643711823585      7.85845020192767
  H           3.54328711660570      0.08412351115537      8.40562367916966
  H           3.50141226273508      1.58861648356986      9.38671364439776
  H           2.56771468373031      1.48668214024591      7.86253629929657
  C           4.36145452656446      3.97929905160530      4.56265392510915
  C           3.74532609329441      4.26051513901911      5.94046435931223
  C           2.32741541040327      3.65431249643353      5.99621220033080
  C           3.63581765723168      5.78745561765306      6.10923787621847
  H           4.55294877324993      2.90807064469378      4.37418784252224
  H           3.63937789475692      4.32082990523112      3.79124406540023
  H           5.29454192246819      4.54693297951631      4.39870273368968
  H           1.70299945392993      4.14601893347114      5.22128351524262
  H           1.84617477698507      3.82582488778397      6.98141755092564
  H           2.32069853046744      2.56734385553103      5.78593605085196
  H           3.08970099342562      6.20480245513333      5.23737373639851
  H           3.07422912693820      6.05861793866809      7.02514086647939
  H           4.63204217700528      6.27204161992827      6.14544171683023
  C           7.30086229698060      7.65984690531409     10.33027052954467
  C           6.61244470959220      6.96408235523160      9.14290792347861
  C           7.13505676618062      7.50890566771100      7.80493011255362
  C           5.10469589964175      7.23608160606750      9.25931272258092
  H           8.40491686702596      7.63306338196534     10.27366709576329
  H           6.99682446101969      8.72743130404904     10.33111080003988
  H           6.98026471895898      7.22238529835614     11.29686034353462
  H           6.94928546964116      8.60294146476864      7.76473322180417
  H           6.60865168775306      7.05062540344648      6.94525568289059
  H           8.22128927276069      7.35299011287199      7.66790543806564
  H           4.93435319652269      8.33094126039191      9.18395190516243
  H           4.52486970077492      6.75022563352836      8.45557814135323
  H           4.69257014232422      6.88695350553691     10.22568468818723
  C           9.78881568318402      5.53059463707411      8.83100892875917
  C           8.75672442764082      4.68285299011336      9.59480457698551
  C           8.99096343633770      4.88455851242709     11.11053801632138
  C           8.98057463456372      3.18878746488727      9.30316746656737
  H           9.71411185827545      6.60864422239648      9.06628137223250
  H          10.80424143471584      5.20232979794795      9.13841325704039
  H           9.74157797566927      5.41397235338826      7.73112752193945
  H          10.02525066857638      4.55755107171789     11.34678950618940
  H           8.28975220019284      4.27488008750580     11.71646616765486
  H           8.89184998970647      5.93608293028331     11.43071962176836
  H           9.99793723968907      2.91040887876114      9.64883137875367
  H           8.25559042578154      2.56034534294746      9.85668973569337
  H           8.91413818986408      2.94004473424574      8.22835059090016
  C           9.96466481440144      0.79323056583533      4.03504572176168
  C           8.76144807045845      1.73795993000912      4.07457789211999
  C           8.65001841387201      2.53702535813654      5.37532029920388
  C           7.43304373838208      3.48120407285343      5.38945955779747
  C          10.06393577311724     -0.02193777461453      2.74303486333321
  C          11.27117123788334     -0.96150567768870      2.69442288603913
  C          11.36775990413718     -1.78096110469092      1.40389263989879
  C          12.57668005601967     -2.71617523531751      1.36512348417388
  H           9.91771622366970      0.10041682432798      4.90551453323392
  H          10.89951420452527      1.38209372376321      4.17321919199352
  H           7.82686807248969      1.15098274272587      3.92526906560802
  H           8.81161556766815      2.44169572617152      3.21325933123709
  H           8.57954108485018      1.83301595100831      6.23363320760270
  H           9.58219116793027      3.12184288581750      5.53981538994651
  H           7.52809370675635      4.18073469233691      4.52786799802720
  H           6.51314709624852      2.89745611653491      5.22255426478175
  H          10.10144407776571      0.67198368754819      1.87274980107761
  H           9.13028324789339     -0.61433285175034      2.61054208342866
  H          11.23551522877286     -1.65301289939995      3.56693846812560
  H          12.20499805261171     -0.36833416041851      2.82402880138974
  H          10.43270358267690     -2.37111216049191      1.27737157490505
  H          11.40138056611704     -1.08711770861963      0.53432054193981
  H          13.52756639131971     -2.15011922197509      1.45384759713115
  H          12.54941518338685     -3.44469150252312      2.20235603081215
  H          12.61966463270917     -3.29485824983082      0.42060328118469
