72
Coordinates from ORCA-job cat_opt E -3184.456413242175
  Au          6.20574132102659      3.36358388199765     10.44376816932681
  Au          3.72050149623300      4.30425190106567      8.78266026916974
  P           7.01652853341798      5.03994985340835      9.14837427532567
  P           5.19002718585271      3.59210490761341      7.20138540620071
  Cl          5.45719728649975      1.50245369979397     11.56613274419463
  Cl          2.24047367361168      5.17643925611695     10.31200038479292
  C           6.84896288926388      4.35799576249646      7.45338769584296
  C           7.93944719106964      4.22969896283666      6.63006471801290
  H           8.84030957781053      4.80034224216754      6.90622317389723
  C           4.23088322787685     -0.33094221013223      6.91857996436470
  C           4.15072287918236      0.98531101801373      7.70096834508992
  C           5.41445008347376      1.71413013758245      7.21187465732575
  O           5.74163404951595      1.17917388527557      5.92668025265044
  C           4.79603349532172      0.14885210044053      5.58424768449504
  H           3.25015272624257     -0.83465108638916      6.81757571415251
  H           4.93551203876112     -1.03707289927181      7.40448425908304
  H           4.15406062150954      0.87308137473279      8.80251224878890
  H           3.24405237439733      1.55476675067621      7.41206750876212
  H           6.27038410222908      1.55128246537390      7.90645579437829
  H           5.34006046350753     -0.62726335983043      5.00919177766234
  H           3.99175530918064      0.57170418386689      4.93692616432816
  C           4.03674854652259      3.93428795675715      3.23173797593618
  C           5.23249410600685      3.82490157935168      4.18937962617690
  C           4.53560308367927      4.11835080322640      5.52028677600704
  O           3.25550928723181      3.48734960856963      5.43154748971069
  C           2.91860358191258      3.27651903493320      4.04822066012506
  H           4.21151730897661      3.43488543324345      2.25886211044454
  H           3.79790743646135      4.99897720937227      3.02986148320990
  H           6.05271717618778      4.53248855331516      3.96847294630983
  H           5.63569336830670      2.79600971975184      4.18781226951495
  H           4.41973155870494      5.22468594202388      5.64640003375428
  H           1.91660001235870      3.71228775223138      3.85212470105814
  H           2.86015922123262      2.18046887183433      3.85558316952858
  C           5.41384658617958      8.54508234791568     10.49095908733723
  C           5.68080888610399      7.04800960142289     10.68857351394057
  C           6.04674939509244      6.64463113947877      9.25621327717731
  O           6.72460058443179      7.75250033293675      8.66759353110680
  C           6.47308941826633      8.93442816093538      9.45436049601243
  H           5.49535736492234      9.13171418298685     11.42638757960424
  H           4.39318663566172      8.69308623990418     10.08238962076513
  H           4.80162613501580      6.48294517696243     11.05480886045976
  H           6.53423003388805      6.86664001829488     11.37287854435734
  H           5.11300420078365      6.41244566460482      8.68384260488098
  H           6.14702128268988      9.74831262502531      8.77311255196118
  H           7.42421340541402      9.25686675436373      9.93987837338460
  C          10.43985348907078      7.19342598208679      9.65317942804628
  C           9.55904232560499      6.48388519503927      8.61182039714226
  C           8.83239224483859      5.42707710691697      9.47346989480231
  O           8.87931530492147      5.88209630851328     10.82899989814301
  C           9.55554499054699      7.14337546275395     10.89572897929322
  H          10.71284213084229      8.22427176247580      9.35397667928943
  H          11.37664922014249      6.62492880763184      9.82721215085313
  H          10.15498932854271      6.02601673523712      7.79944944230428
  H           8.83043646729205      7.18668892330901      8.16597364656560
  H           9.33304543442673      4.43289091865585      9.41203364059155
  H          10.11520672095839      7.17401114470054     11.85199895718290
  H           8.81640926831895      7.97905464935181     10.89919937293239
  C           9.14796707327914      3.42030808416153      4.60649603985791
  C           8.10407125988009      3.35663535124552      5.49186072349556
  C          10.17779247158432      4.45623486131362      4.50614004147340
  C           9.93800503333040      5.81556783115076      4.83464872671550
  C          10.96516181298222      6.76488353964631      4.75755396643168
  C          12.25068233880378      6.38554832772585      4.33869576201511
  C          12.49712097344993      5.05062604555921      3.97493397736079
  C          11.47151165929797      4.10187149179629      4.04632804237203
  H           9.25047203811769      2.58174004618765      3.89631880463717
  H           7.39680261438122      2.51770032444990      5.39178111650989
  H           8.92381767070483      6.13582132971557      5.11392566308129
  H          10.75462458903996      7.81494902024472      5.01132057234664
  H          13.05559937551091      7.13325469949619      4.27648566097376
  H          13.49768651417680      4.74930379568629      3.62979154649444
  H          11.66938750793757      3.05641471767052      3.76278137847885
