102
Coordinates from ORCA-job cat_opt E -3803.062276520554
  Au          5.61171852455660      4.23929996562118     11.51038625697475
  Au          3.56049693366385      4.48922473171314      9.09854510386929
  P           6.82583085873085      5.07381472981844      9.79384847863282
  P           5.14513935243617      3.57184671832355      7.76438652633634
  Cl          4.58625378494407      3.25820413243530     13.30601116182590
  Cl          1.85914793889848      5.49021414195009     10.26616507175723
  C           6.85074557063230      3.81291317837436      8.44406374247279
  C           7.96923849442913      3.09075259720607      8.18233464174468
  H           8.87662626411150      3.37280031558699      8.75183249183823
  C           4.94619892456194      1.76647478203149      7.55129228623661
  C           5.03474135705397      0.95945557815342      8.72613232054461
  C           4.89162295924892     -0.41312826466026      8.63071705452147
  C           4.64178503814802     -1.04470921352618      7.37520145586316
  C           4.49685915463036     -2.45585631660827      7.24730969451480
  C           4.25114766237433     -3.03481734732556      6.01054432096309
  C           4.13776325059837     -2.22556752849873      4.84805139694975
  C           4.27072349600578     -0.84808606222511      4.93903470435217
  C           4.52530173777852     -0.22358777131750      6.19476582502020
  C           4.68004317625497      1.18749141040878      6.31638070218879
  H           5.20818986462479      1.43540983300601      9.70481780619013
  H           4.96123414507962     -1.03659453995189      9.53534663677599
  H           4.58176020644674     -3.08062371175566      8.14986682085157
  H           4.14070795500527     -4.12645407166159      5.92639939005652
  H           3.94097901563097     -2.69697686370530      3.87338363648070
  H           4.18074125347622     -0.21591556693254      4.04194875214637
  H           4.60101947900481      1.81034027547076      5.41206412935351
  C           5.14258303998334      4.30863849471678      6.08297606618792
  C           3.99340911116081      5.04837402446271      5.67525869703379
  C           3.96456889860662      5.66689401118447      4.43677771875816
  C           5.07474776111029      5.58699171809521      3.54752622894678
  C           5.09323269140279      6.24875297113630      2.28584703726726
  C           6.20494938700221      6.17007876505175      1.46022508758901
  C           7.34632332562551      5.42001514710034      1.85749805348044
  C           7.35987561635914      4.76289261600703      3.07800207643996
  C           6.23497084864342      4.83203821347573      3.95299734228194
  C           6.23543658141141      4.20218026113809      5.22859739465739
  H           3.14543663871371      5.14485243538662      6.37161764484647
  H           3.08304451909685      6.25329420036135      4.13641845043561
  H           4.20965681372778      6.83027549758628      1.98099033296346
  H           6.20732705840958      6.68846252678703      0.48950604753993
  H           8.21993959112188      5.36338743773441      1.19092402782619
  H           8.24111138947789      4.18046712559825      3.39099647337992
  H           7.13690763568999      3.65582794902383      5.53518773043663
  C           6.19732827244070      6.56633504181633      8.93976890974558
  C           5.26574622651514      7.41515613883012      9.60804262793350
  C           4.70113807353605      8.48530824214579      8.93628512753940
  C           5.02847756121250      8.75937943544582      7.57529291963044
  C           4.43181009170011      9.82841711875634      6.84617791631742
  C           4.76184347260472     10.05203148585545      5.51717044399185
  C           5.70623323979664      9.21822400238052      4.85871591245741
  C           6.30679360031431      8.17081954717470      5.53980315062395
  C           5.98431935869938      7.91328771285374      6.90401195040646
  C           6.55113039143184      6.82088034203346      7.61712774720572
  H           4.96817132666345      7.18583779592741     10.64227802328200
  H           3.96009865072563      9.12021916595173      9.44477866397820
  H           3.69841826570690     10.47156795288049      7.35639958053760
  H           4.29004040032143     10.87978160891871      4.96624958903875
  H           5.95543555276530      9.40050677277959      3.80245660280276
  H           7.03017504872627      7.51540707440962      5.03133456084401
  H           7.24286544184730      6.15207473722853      7.08332470586237
  C           8.58682317412337      5.37644133407363     10.20253022376418
  C           9.43332172960819      6.18891412503058      9.38961162709445
  C          10.77203878061760      6.33714227814488      9.71050049095806
  C          11.33570241176949      5.69056316217839     10.85043680143347
  C          12.70924722648239      5.82373037640807     11.20411154118449
  C          13.21590458919845      5.18460562015609     12.32633922278961
  C          12.37075177150556      4.38701033449315     13.14490001990476
  C          11.02893173894966      4.23815480259974     12.82909957853938
  C          10.47922708617587      4.87914408266979     11.68040548220115
  C           9.10599997070893      4.74512179062207     11.32989955707809
  H           9.01727372440623      6.71114638623794      8.51659003090876
  H          11.42138137964371      6.96982763167802      9.08548424281629
  H          13.36239521583269      6.44519911339842     10.57205150228105
  H          14.27873448786642      5.29599543010966     12.58921091452225
  H          12.78592253057026      3.88898297213823     14.03386073931917
  H          10.36724477439397      3.62534999995558     13.46038762054370
  H           8.44356456076833      4.13587438878474     11.96777603833596
  C          10.58956399847619      1.37542958601309      4.17732481728707
  C           9.47883039356848      1.11599092036944      5.19722223978891
  C           9.33714709970870      2.21745285730034      6.24938449040387
  C           8.17229993437639      1.96142195166984      7.22231787170544
  C          10.73407682928213      0.26799119607808      3.13064560353916
  C          11.83975263591575      0.52318751100091      2.10367105470084
  C          11.98817644816573     -0.59077054439551      1.06293464541319
  C          13.09440908083322     -0.32846866940567      0.04063904675304
  H          11.55801210146186      1.50963139287255      4.71008101881163
  H          10.39724457918883      2.34537147271970      3.66284842695816
  H           9.65799312215073      0.14257950160882      5.70624771689565
  H           8.50872118179556      0.99588969978458      4.66354072701675
  H          10.28622936157919      2.32987064704255      6.81829543701601
  H           9.18545489904813      3.19613225796216      5.73994690672055
  H           7.24739382629645      1.73884047806971      6.65867480044677
  H           8.39502356805472      1.04192225504874      7.81090673582050
  H           9.76308157503302      0.13346134288430      2.60212646764537
  H          10.92688941044242     -0.69959854876101      3.64689932580351
  H          12.80959628654279      0.66272791580772      2.63349043048093
  H          11.64472564912825      1.48882372048235      1.58327989451659
  H          12.18228981308717     -1.55326410897546      1.58680705905467
  H          11.01680424254093     -0.72938627088507      0.53767897760447
  H          12.90740888341775      0.60838463125505     -0.52506071734972
  H          14.08287257644738     -0.22143405403584      0.53463192884195
  H          13.17730506995868     -1.15226567235642     -0.69649479028066
