66
Coordinates from ORCA-job cat_opt E -3065.968189743060
  Au          6.24476247325887      3.89841487172551     10.97295965723690
  Au          3.88434308268922      4.21540850704027      8.83375566231466
  P           6.90801534046870      5.35446731953108      9.38182526717908
  P           5.52041592328142      3.78690854471884      7.33663872336547
  Cl          5.77176203155195      2.37865700185484     12.61487151893685
  Cl          2.12485394469371      4.71532746760654     10.21232070128141
  N           6.99039401142639      4.60624402294693      7.79977771030685
  C           5.93743273960623      2.01295977541568      7.17478016163896
  C           6.62441151912651      1.41246737029928      8.25016646122134
  C           6.93500022107363      0.04810017691394      8.21581894797010
  C           6.53155528440361     -0.73496072906506      7.12173017626119
  C           5.80486804775589     -0.15168099131213      6.07167405036422
  C           5.50438059910203      1.21910166816904      6.09360545105979
  H           6.90874936624726      2.01326100667109      9.12889903460752
  H           7.50456782355552     -0.39080148347929      9.04780871239932
  H           6.77206805026578     -1.80852618312193      7.09360234019969
  H           5.46688151058251     -0.76755661552515      5.22464291122599
  H           4.92620278216812      1.66463128851355      5.27117855535287
  C           5.15709801712813      4.42978310129014      5.66016355183417
  C           4.13378932895664      5.39382511832645      5.53823859863223
  C           3.86118932274246      5.98173383887614      4.29511991539927
  C           4.60268751577483      5.61039773741885      3.16263476840050
  C           5.61961089671974      4.64893683469815      3.27485066614615
  C           5.89987897634734      4.06093668050740      4.51701916871886
  H           3.55143618922833      5.67516978246706      6.43040104900259
  H           3.05732465720285      6.72834639076203      4.21183841256750
  H           4.38383427438942      6.06766698430850      2.18576480829811
  H           6.20014189021586      4.35192958741028      2.38850314680364
  H           6.69450676041009      3.30411387051283      4.59015754547573
  C           5.87483801455343      6.84812323105330      9.15424353363997
  C           5.76772343625898      7.47893751281331      7.89895407212791
  C           4.93565296430271      8.59746622924690      7.74948811258238
  C           4.20732300704267      9.08318161941914      8.84753544065593
  C           4.30951278947962      8.45055023096347     10.09669249605096
  C           5.13866875721373      7.33210105401656     10.25238596309297
  H           6.31142172632949      7.07768075735861      7.03055037700458
  H           4.84448439433123      9.08230225974092      6.76569450810855
  H           3.54244990749151      9.95138033989163      8.72449497875940
  H           3.71887350161672      8.81258016883691     10.95086463397816
  H           5.18531586149841      6.80384355030208     11.21775654691542
  C           8.60297599259206      5.98704003491400      9.67773719313737
  C           9.50168418295959      5.16548824033069     10.38933666324650
  C          10.80661618561043      5.60822682898688     10.64419635577646
  C          11.21813757484641      6.87672993860840     10.20418696957237
  C          10.32016197021406      7.70680528163742      9.51423079859642
  C           9.01405511469286      7.26778917324792      9.25300513712487
  H           9.16485770647411      4.18232528781802     10.75475645021130
  H          11.50123769211359      4.96355784500691     11.20325771910352
  H          12.24047126777695      7.22687202954674     10.41280473344969
  H          10.63503781792968      8.70804427870183      9.18381888704714
  H           8.30733738747251      7.92642305260466      8.72637180052228
  C          10.15372569391404      1.51298629454917      7.46025688325692
  C           9.58824818921231      2.90509004603180      7.73659101644723
  C           8.90230841027693      3.53986062848565      6.52883043851516
  C           8.10562477858260      4.80747353293504      6.85556465942203
  N          10.52485896920426      0.85262295587952      8.70992527423894
  H           9.35889510470473      0.90181132409467      6.97874007714198
  H          10.97854171028748      1.59706524947910      6.70376515633223
  H          10.39222943999579      3.57766227805554      8.11081356620554
  H           8.86207782482988      2.81076410564289      8.56930096219388
  H           9.64877056656210      3.80686090591912      5.74900777190674
  H           8.22988603650424      2.78953104928639      6.06015513330887
  H           7.71370486519609      5.25897642161293      5.91772254088431
  H           8.78499687029493      5.56193088069331      7.29800971362919
  H          10.90329370513059     -0.08314159911410      8.51825735289674
  H          11.28897900212921      1.37011703592109      9.16517340871394
