66
Coordinates from ORCA-job cat_opt E -3465.123750042203
  Au          6.49728042801504      3.68897179525363     11.49297696937647
  Au          3.89352740643011      3.37473587361276      9.49426630147690
  P           7.04519621155050      4.75946057856738      9.59235873012532
  P           5.22151243431161      3.30330272613062      7.66939329001536
  Cl          6.16216610282676      2.54350505585813     13.43325940017456
  Cl          2.40700694467696      3.46759569421269     11.22204153266114
  C           6.97229661994352      3.61051541800820      8.13538691378224
  C           8.08542869272901      2.86890181872135      7.85477789648529
  H           8.96143057661761      3.05393399313415      8.50599593705365
  C           5.11428483826977      1.69611941461073      6.81769421335993
  C           4.59058585963111      1.52962458138003      5.52289529458231
  N           4.52717733535316      0.32965969888992      4.93094779999602
  C           4.99677794186059     -0.70704421877108      5.64092421653970
  N           5.47033392104101     -0.67875232136259      6.89907329864951
  C           5.51009594806068      0.51824085017109      7.48894242894459
  H           4.21857027867742      2.39380794713775      4.94371709775681
  H           4.98358781644325     -1.69341856162436      5.14328664420314
  H           5.87766437815973      0.55765372839710      8.53108480171559
  C           4.80202413234138      4.58634083191146      6.43298334840067
  C           5.71880778946566      5.08134288133198      5.48370553164996
  N           5.42296297338649      6.08726861126749      4.65441136364528
  C           4.19434350260243      6.61592881990039      4.78232455104528
  N           3.23278571769416      6.22643647762694      5.63411723237740
  C           3.53894293534559      5.21509981872732      6.45616591918978
  H           6.74188530196357      4.66790763254413      5.41618961286122
  H           3.95156435339282      7.46355567615543      4.11705027479342
  H           2.76922256140298      4.89815844937517      7.18512851424533
  C           5.99467089558437      6.19288195777660      9.12539056496126
  C           4.86610450905337      6.54080995988752      9.89889952956988
  N           4.04369773864117      7.53767574174394      9.54344435803100
  C           4.34577841000402      8.18757937104517      8.41088446679609
  N           5.41301680396060      7.98007173081476      7.61892278053952
  C           6.23424282494694      6.99065070624949      7.98938502223429
  H           4.62496938863116      5.99049448589620     10.82718158161779
  H           3.64673366207754      8.98254537839464      8.09467581349809
  H           7.11528482815364      6.82099663233231      7.34585123204040
  C           8.74882787509567      5.44481275720217      9.56334206635155
  C           9.45672617588500      5.79306183038558      8.39287753294698
  N          10.67565495242915      6.34249311373887      8.42918278401603
  C          11.19894855151275      6.54607608430991      9.65029053695470
  N          10.64122847181507      6.23281609624822     10.82913340871430
  C           9.42217394841646      5.67962064962395     10.78111372447600
  H           9.03229674117025      5.60229745882910      7.39039645548021
  H          12.19940118888804      7.01427514697326      9.68499397185523
  H           8.95120458737438      5.39850041992129     11.74211497606388
  C           9.22833239229169     -0.44442759248416      6.44821029096855
  C           9.03242206986327      0.66362975484040      7.29590511813857
  C           8.30305083228723      1.79828962185759      6.87624621792507
  C           7.82479481752471      1.84936111059840      5.54856596988056
  C           8.04111049702949      0.77072571320475      4.68391154264050
  C           8.72093481478852     -0.37020980586876      5.13109867055575
  C           9.94345583043421     -1.65201383016004      6.92820272590594
  C          10.80898368219023     -2.36960043759400      6.07270457320382
  C          11.48163182748968     -3.51113774963090      6.52798303431194
  C          11.29921876148821     -3.95971522003047      7.84570022404803
  C          10.43913094575510     -3.25816821703063      8.70513066484345
  C           9.76803102450993     -2.11509804316343      8.25137583305370
  H           9.44402485584759      0.63954732138301      8.31648853963302
  H           7.29657361827744      2.74166547334303      5.18900065185356
  H           7.65836302307142      0.81287580623374      3.65361181181154
  H           8.84857947084605     -1.22840561495883      4.45518540408566
  H          10.97828783375182     -2.01082164297230      5.04611676288517
  H          12.16037217468103     -4.05056933683716      5.85020726026310
  H          11.82629662689078     -4.85730328222760      8.20243936744749
  H          10.28022221635995     -3.60959319844513      9.73566731673701
  H           9.06985212878862     -1.59146762259851      8.92171409855278
