64
Coordinates from ORCA-job cat_opt E -3106.390832383925
  Au          5.32932848861655      3.67603112120402     11.06247984153812
  Au          3.46402231639645      4.58257335912262      8.42670715989549
  P           6.60830868504986      4.90084515095642      9.65933591829092
  P           5.12943819746608      3.36109443719045      7.50260884640330
  Cl          4.14805983587198      2.37706909622283     12.52794538230500
  Cl          1.73026317315743      5.84956937898971      9.23395967979794
  C           6.76900894523482      3.99976920777659      8.05880233972170
  C           7.95073228960756      3.92779721040477      7.39031042290651
  H           8.79423215015880      4.51792023067807      7.79998165354542
  C           5.04558004852734      1.59373719589462      7.95849537118066
  C           5.98539256058583      1.00276753571239      8.82425316894191
  C           5.81564202092266     -0.32544196569633      9.24170613633295
  C           4.71485190459516     -1.06943197944817      8.79313056377617
  C           3.77213322166694     -0.47989947090871      7.93481459091477
  C           3.92603039622259      0.85185359775937      7.52820844487063
  H           6.84238139481239      1.58742904850778      9.18948227797169
  H           6.54409176112620     -0.77486109730191      9.93256268770649
  H           4.58116989535782     -2.10963965655049      9.12567448840110
  H           2.89850511438886     -1.05506817686356      7.59368439679325
  H           3.16625458192650      1.32248252182308      6.88498856599457
  C           5.15591603933263      3.48059188762496      5.67354413227540
  C           4.99356790127650      4.76748341313214      5.11986916745138
  C           5.05221734820001      4.94433949594417      3.73145997440833
  C           5.25251290644082      3.83821081706341      2.88935916396181
  C           5.38719048419161      2.55435103280541      3.43894734783902
  C           5.33839226672269      2.37157186414515      4.82845725741590
  H           4.80674237490831      5.62738586768279      5.78302529548041
  H           4.92543824296666      5.95029274241995      3.30387944321670
  H           5.29300238922849      3.97698290524448      1.79838602844949
  H           5.53849206972008      1.68452641186747      2.78252302313659
  H           5.45391421189298      1.36615198243553      5.25598344323777
  C           5.96088669106060      6.55413331790826      9.21680185944708
  C           6.26084788472667      7.15431446771790      7.97691444020624
  C           5.71568023934275      8.40626479957769      7.65891517076340
  C           4.86883920804424      9.05640930574454      8.57113506137376
  C           4.57162319372789      8.45932949887797      9.80569457740027
  C           5.11554074155865      7.21068203297465     10.13184018898613
  H           6.89974655422587      6.62945062968884      7.25023935105834
  H           5.94134179892234      8.86964555715626      6.68654745810280
  H           4.42516027943320     10.02899760998723      8.31047308748295
  H           3.88730808937244      8.95325459204573     10.51038875934059
  H           4.84847972176687      6.71823518037637     11.07937180173213
  C           8.33692310060658      5.15651956123616     10.21648148863914
  C           8.93853311085229      4.13956825155361     10.98668861052415
  C          10.27079095947951      4.26822561459529     11.40088225641611
  C          11.00580832793857      5.41603862746451     11.06092867336328
  C          10.40521499909187      6.43686616545814     10.30808269208839
  C           9.07309176958114      6.31115642185519      9.88427956065975
  H           8.34707414315726      3.25527528516661     11.27490611690318
  H          10.73391617776126      3.47311182670418     12.00416161842053
  H          12.04929172751932      5.51988717858655     11.39475042093788
  H          10.97473934522021      7.34312231713848     10.05250248689651
  H           8.60048526541795      7.11789966241241      9.30441615174704
  C           8.25835556610085      3.16000021410474      6.16506705874189
  C           8.17959524514507      1.75142403017046      6.14445361938558
  C           8.51767174205836      1.03826077761038      4.98585676609839
  C           8.91586456822336      1.72090785207038      3.82731255371573
  C           8.99676598304526      3.12328733658806      3.83878252489804
  C           8.69223115340273      3.83705587608593      5.00407767592593
  H           7.85605735382784      1.21429302186074      7.04636520789043
  H           8.46056455801315     -0.06074527440592      4.98944549479826
  H           9.16939890684608      1.16119669269235      2.91444925144188
  H           9.30596174820813      3.66570754643873      2.93277165332395
  H           8.76361762974801      4.93535585671779      5.01223114712730
