31
Coordinates from ORCA-job cat_opt E -2560.454671660718
  Au          5.88142050852995      3.56273102879601     11.11927497660770
  Au          3.17165412847277      4.56366778645227      8.79081057548382
  P           6.62391535843219      5.05588917195367      9.63463082192230
  P           4.91240239070207      3.72524618500079      7.67246242577212
  Cl          5.16826234532690      1.94971031247014     12.55900282921618
  Cl          1.44655489703322      5.54102072552122      9.90988571020125
  O           6.34552760759709      4.54924111662533      8.04226131293317
  C           5.36060787110989      1.94912387325731      7.95303074407624
  C           6.48005545765509      1.31103509864875      7.22547899340297
  O           5.11448096995417      1.00454075757975      6.91760533666554
  H           5.11003299917590      1.61787588403164      8.98100872681523
  H           7.01628091086457      1.88330697534371      6.44879715806122
  H           7.03933897303390      0.50825967619069      7.74016057710026
  C           4.90691014800712      4.04283740656115      5.86425393616902
  C           4.35981093811482      3.09511021698685      4.86905076314952
  O           5.77037429444932      3.32408881820747      4.99590478116138
  H           4.82176344374686      5.13289108926172      5.67418998797176
  H           4.01786702191038      2.09849871968538      5.19628419404271
  H           3.89104145967267      3.51657810982296      3.96109327755613
  C           5.89260874041149      6.75770785608107      9.67251523882938
  C           6.35767939330215      7.81988881202497      8.75338761348439
  O           6.68931057978263      7.83663773530326     10.14757056150541
  H           4.83823202804680      6.74551241878729     10.01520897241529
  H           7.20390502095281      7.61461469332940      8.07532403810658
  H           5.62424774588641      8.58277749294965      8.43388896015617
  C           8.45044300858723      5.20946690998019      9.52517039287401
  C           9.23643615468094      6.20723359036099     10.28318451022255
  O           9.05079570205582      6.31385297242681      8.86453510191384
  H           8.89797094970979      4.21546681409286      9.31718045317723
  H           8.71329908813580      6.97282279273504     10.88100818631966
  H          10.25372486466107      5.92169995952608     10.60773884269157
