77
Coordinates from ORCA-job cat_opt E -3129.225426575189
  Au          8.38408298957434      3.67278971093140     10.45425852272690
  Au          4.96818815998346      2.79989827232299      9.18184085773701
  P           7.71064149907598      5.06739633383505      8.83207326491844
  P           5.72648876163081      3.55444981076860      7.19848407632754
  Cl          9.19752543771755      2.25364413774720     12.05537346136508
  Cl          4.13106008926532      2.02650226170173     11.16273965323446
  N           7.28568026149438      4.31641674655851      7.30046324844821
  C           4.77058087079756      0.62431574506148      4.55235809510116
  C           4.60593787391042      1.27407210319947      5.93247452465432
  C           5.87167801975527      2.14552671490907      5.98462225173572
  O           6.13271366766606      2.56575611335604      4.64217624508368
  C           5.34927555796404      1.77372716181772      3.72585992846964
  H           3.82050458173225      0.23441076560427      4.13892402399256
  H           5.49263221701121     -0.21653318211961      4.60596185673737
  H           4.56455402902601      0.55460124079158      6.77128480427528
  H           3.70028827261023      1.91069422402559      5.97290815491761
  H           6.72780338751732      1.54584055398169      6.36861627157280
  H           6.00920628490561      1.44114860819515      2.89836978988219
  H           4.54369872837675      2.41018365814963      3.29253167826036
  C           4.06168843033764      6.02800109189142      4.41211201954647
  C           5.31544323390499      5.61499056247720      5.19619565413261
  C           4.67617517573555      4.87851908967443      6.38197469149645
  O           3.45713036294583      4.29844244330562      5.91268046294383
  C           3.15960963961380      4.80715839036977      4.60242887378813
  H           4.26496167781818      6.25195764151721      3.34664809934117
  H           3.59635214594706      6.92597420573536      4.86916434233305
  H           5.93637171107838      6.46412534229762      5.53475911909848
  H           5.93909964694893      4.92348293807889      4.59767677689140
  H           4.46000486335525      5.60579297398422      7.19866039969966
  H           2.07573143666248      5.03949067841048      4.55666815205169
  H           3.37683320529941      4.02536354270820      3.83654428937716
  C           5.22563720712020      7.70822636675905     10.69883165814120
  C           6.30183216950799      6.61689767908412     10.76937300818905
  C           6.19504177671487      6.03504173985202      9.35301968578607
  O           5.84327300536355      7.11397286121557      8.48244414101494
  C           5.39249246500666      8.23522823283970      9.27202600065742
  H           5.35308112020999      8.49781424268464     11.46426921399106
  H           4.21921224253326      7.26063332133469     10.83093363037541
  H           6.11350738064508      5.84663653197069     11.54059912697046
  H           7.31004422948223      7.04204455045347     10.94326964447514
  H           5.38269948679895      5.26325179029306      9.34519586446558
  H           4.45296371416586      8.62164683516800      8.82586217963207
  H           6.15715226294710      9.04515670520889      9.22071918213469
  C           9.43165170238447      8.57252732732842      7.62314980653387
  C           8.65629466419499      7.32104042310637      7.18507374141937
  C           9.00040857434479      6.34396416646838      8.32217159506153
  O           9.24681948047478      7.13253177559062      9.48905992029290
  C           9.26316504261382      8.52558767886285      9.14098162772195
  H           9.04053770529540      9.50563154064635      7.17252531107844
  H          10.50396133256398      8.48380527470663      7.35144741362168
  H           8.96665088481119      6.93984555343240      6.19408610761374
  H           7.56781308771982      7.51550869820904      7.16634230891814
  H           9.91927495907696      5.75933277213365      8.08331340063877
  H          10.08968308168254      9.00921076589640      9.70010934415331
  H           8.30684884419814      9.00609094997151      9.45703901908734
  C           9.04898964508663      1.67952022865519      7.47534970136048
  C           9.49822727997196      3.06778684674608      7.01151309452118
  C           8.40050549611383      3.94472844190366      6.39116529372327
  C          10.08135774628842      0.87550762590966      8.27851020131037
  C          11.41703994188619      0.58871138536803      7.56823875752125
  C          12.51473968584614      1.64095304628559      7.78097721519156
  C          13.82436718250796      1.29750036071647      7.07073775823282
  H           8.74181181680375      1.08830664575143      6.58207677040556
  H           8.14204927151758      1.79342692832968      8.11144432501203
  H           9.96404646384495      3.59774682256832      7.87212058154185
  H          10.30075357505263      2.97773368116573      6.24822237797548
  H           8.85445209852445      4.87807475990048      5.99644588022988
  H           7.95730020621798      3.44000804265593      5.51057590206096
  H          10.27002543274525      1.38821059436895      9.24762153141433
  H           9.60044522107836     -0.08546494639003      8.55564295059698
  H          11.81363168827913     -0.38674549905644      7.92555821002974
  H          11.24159439442041      0.44707142054052      6.47581662641349
  H          12.16358915428863      2.63943351622688      7.44384682094097
  H          12.69413977804028      1.74776527641947      8.87329575268143
  H          14.22364203267235      0.31955203651542      7.41284485379784
  H          14.60738013896515      2.06025803739131      7.25673744668095
  H          13.68221311032728      1.22526208352183      5.97151042624105
