70
Coordinates from ORCA-job cat_opt E -3183.197119282256
  Au          6.59744404615644      3.51408860302689     11.47032426843900
  Au          3.93191048026955      3.44335752759524      9.30361949908957
  P           7.17004717934963      4.76933057989021      9.69681937974345
  P           5.40226698016631      3.39037854844634      7.58484924790514
  Cl          6.16441521137691      2.20961671950977     13.29515308966089
  Cl          2.33267850170246      3.59843195651901     10.93221991892193
  C           7.12396479270616      3.70903538529605      8.17720828421048
  C           8.28408348455014      3.13784079494969      7.75825023653617
  H           9.21869815346960      3.46350864105369      8.25188072557990
  C           3.99120643942626      0.34932005705332      5.27285257767773
  C           3.80340929863889      1.35164608625970      6.41985692109931
  C           5.26102503584686      1.78841309960598      6.63286549608940
  O           5.84449850469922      1.84439219929017      5.33969725471725
  C           5.09522190307997      1.00710263076408      4.43545011131028
  H           3.06433185980527      0.17070291543047      4.69456403733930
  H           4.33690934987966     -0.62661831059087      5.67139451313722
  H           3.35444698499724      0.91778869173807      7.33277962627086
  H           3.19100868837709      2.22061231276293      6.10675176657664
  H           5.78761456427864      1.04360095659750      7.27670047091655
  H           5.78933316637078      0.27606424929625      3.96964068597092
  H           4.67556639888470      1.64875086263854      3.62774368942328
  C           5.48218902220863      5.53171739997637      4.11529319299309
  C           6.27483391353162      4.98038988517834      5.30852139030253
  C           5.15134525145733      4.78386040571089      6.33666443646597
  O           3.95000339733104      4.53073175982378      5.61213171938701
  C           4.18892251194103      4.72083982475158      4.20821249866068
  H           6.00442345921515      5.40157754713600      3.14729007203965
  H           5.27077480810987      6.61282311783777      4.25085023398187
  H           7.05502703617296      5.66595421752114      5.68887119410287
  H           6.73395516626257      4.00808010292210      5.04804493377914
  H           5.03316327357781      5.70309366485406      6.95309684837986
  H           3.30505407612551      5.23432834095718      3.77778252058842
  H           4.29749142682995      3.73276120845028      3.70380360878025
  C           5.19989425933544      8.33162817944819     10.02649497885496
  C           5.74447561391557      7.05379027121940     10.67904442291776
  C           5.99149791404360      6.19567142590452      9.43301424499375
  O           6.38724765168625      7.08407511547643      8.38281455462390
  C           6.04363571569925      8.43729632513582      8.75233999241077
  H           5.29078051097356      9.22564025714555     10.67308980995326
  H           4.12828011741032      8.20165868388281      9.77099715758258
  H           5.03359818991507      6.56333197185620     11.37068604831848
  H           6.69163636318433      7.23552381853181     11.22361587624575
  H           5.03290927051615      5.68301826516346      9.16132765256415
  H           5.50573525514856      8.90809827262075      7.90341483078266
  H           6.98296143709916      9.01247299589453      8.92422795658846
  C          10.29791126913253      7.32842408331970      9.10206416351105
  C           9.41462970092201      6.23256954453083      8.48809996106770
  C           8.90678019867679      5.50796570413907      9.74992287679277
  O           8.92087174072861      6.46154778304771     10.81319626285025
  C           9.50829910422779      7.68971655185391     10.35851036091763
  H          10.45259356381097      8.19047913476636      8.42425260814451
  H          11.29356479509681      6.92228078216169      9.37609816193720
  H           9.96409772967254      5.55821543684826      7.80505318477442
  H           8.56329837868146      6.67516839973544      7.93654124182861
  H           9.57371887982707      4.65849295413137     10.02930530866140
  H          10.13013430034935      8.09533993430458     11.18189216012271
  H           8.70772043807465      8.43345014313511     10.13136517414369
  C           8.91863037049600     -0.99018428862501      3.81432266547039
  C           9.00284941027616     -1.86542801718157      2.96013902386401
  C           8.80931522237026      0.03059065385866      4.80803126531036
  C           8.38827240670928     -0.28435344411333      6.12305846268547
  C           8.23638377808456      0.72274809395628      7.07968458725472
  C           8.48102737987313      2.07132782589860      6.74694659917045
  C           8.96157119389011      2.37910029850124      5.45787194476547
  C           9.11501715449781      1.37808313527664      4.49660195330321
  H           9.08088187768796     -2.63872730423122      2.20877697921931
  H           8.17820642803995     -1.33180055832275      6.38294236714068
  H           7.91678588989104      0.46831870562242      8.10175033308303
  H           9.18800053837121      3.42411542442683      5.19861101834488
  H           9.46252558488855      1.62846845842666      3.48418135972215
