79
Coordinates from ORCA-job cat_opt E -3226.115945145118
  Au          5.28322358440794      3.88476007894279     10.38126964315569
  Au          3.64488520998621      5.26238770210424      7.80694462437585
  P           6.78912998190894      5.11280300490348      9.22172212720821
  P           5.23495761401397      3.93434708202324      6.90961195837318
  Cl          3.80008225479781      2.51117214998707     11.47299218573804
  Cl          2.17630273635633      6.76216379348816      8.74100387285697
  C           6.94268036273612      4.55489545768080      7.42644812031156
  H           7.59971003739515      3.65732269330048      7.45435147148984
  C           4.22429564191647      0.05938394173162      7.75874578844074
  C           3.81583382058593      1.53416328763854      7.63916277123279
  C           5.19905143298400      2.17625372206020      7.53083970196146
  O           5.99565122425283      1.30059606814108      6.73535437530218
  C           5.45518150081740     -0.03520535503329      6.84240005972117
  H           3.42074180894814     -0.64283629829228      7.46443580904380
  H           4.49968128790682     -0.15925598635492      8.81049290828431
  H           3.26149086507116      1.90653954172012      8.52211322664610
  H           3.22317570465488      1.73725898104117      6.72502339614541
  H           5.62869387628593      2.27039628325759      8.56353936576802
  H           6.23992111411073     -0.71284458305283      7.24168742155637
  H           5.19031257252677     -0.38635848917702      5.81908689548277
  C           5.55374975105203      2.40794773685228      3.15120294206076
  C           6.31040198844710      3.15751930873083      4.26027894821248
  C           5.16001346147348      3.84589977669770      5.02215068539955
  O           3.95911750156156      3.13349594948344      4.72102086623795
  C           4.26245292819276      2.02187541574358      3.86700105481215
  H           6.11402136260231      1.53494746984376      2.76325547313427
  H           5.33360246536162      3.08385060984407      2.29919111100799
  H           7.03590314975074      3.89242125214492      3.86501142222573
  H           6.83857781160228      2.44212108888185      4.91752223017792
  H           5.02766255144187      4.90178918136056      4.69542376805411
  H           3.39583475252853      1.87338878448725      3.19234342171723
  H           4.40238368338495      1.09672954616144      4.47200414856152
  C           5.89971174127417      8.94631810459727     10.28585327241076
  C           5.66867236306210      7.43845563143322     10.44182634999173
  C           6.32934129241639      6.92718579221351      9.15780263846593
  O           7.44858038630307      7.78254038866212      8.90443575045341
  C           7.29907764806888      9.00012306274189      9.66735645847620
  H           5.83415860634772      9.49943997698220     11.24253669085278
  H           5.14581585039832      9.37062191058917      9.59140931150873
  H           4.59944205013145      7.15597433010454     10.49246433428695
  H           6.19474357158852      7.03319390398817     11.32986414254562
  H           5.59601553119140      6.98665423201943      8.31414640208019
  H           7.45233915045422      9.86324843060983      8.98668199065359
  H           8.09216408772416      9.03139816988217     10.45001292066174
  C          10.58734221413811      6.00700800928446     10.48308908847214
  C           9.71088951467973      5.64490673750195      9.27429990432842
  C           8.50954018954235      4.97719834768490      9.96587810613699
  O           8.41285579490988      5.54407939312613     11.27377014942402
  C           9.53211512728297      6.41046373459889     11.51128625095154
  H          11.31318922336687      6.81445789955206     10.26467541731346
  H          11.15309989007259      5.12088489722292     10.83841364214281
  H          10.20955764260124      4.96235779202038      8.56084750649944
  H           9.39344279828302      6.56129303072191      8.74401952031508
  H           8.66951233085612      3.87504353698683     10.05319897075485
  H           9.85337404352253      6.27303210703557     12.56359148257016
  H           9.22547168234663      7.47414604416253     11.37660167389522
  C          10.60574109839116      5.76783701971616      4.02620207455474
  C           9.30289286548359      6.19256951527495      4.72504370611203
  C           8.81103631381495      5.18029698855120      5.75940042357625
  C           7.52643723613578      5.62564254117763      6.46515173513804
  C          11.06700570478044      6.76995846473719      2.99380501152748
  C          11.89708236182266      7.85028287095475      3.35492906791379
  C          12.28040135215209      8.81349566929269      2.40995855120779
  C          11.83657486141612      8.71284927753677      1.08209281871052
  C          11.00959987025506      7.64222994240209      0.70781286986958
  C          10.62935468383322      6.68187212883451      1.65692432326140
  H          11.39811126472022      5.62391602713518      4.79209761095996
  H          10.45253174204983      4.77779576804890      3.54485393076578
  H           8.51592537619042      6.35592868328194      3.95501890888169
  H           9.45249739745796      7.18260875519850      5.20919349206404
  H           9.60487672719543      5.01207074290861      6.51818855719902
  H           8.65497305760776      4.19473695660667      5.27157428409070
  H           6.76615945570960      5.90415377995951      5.70481471553433
  H           7.72248927187415      6.57117888453823      7.01063213759875
  H          12.25178119050493      7.93297113098795      4.39515980320950
  H          12.93346527384558      9.64677184340257      2.71144849756767
  H          12.13846734241335      9.46584453353744      0.33848501774403
  H          10.66090770081220      7.55221313669302     -0.33240897249471
  H           9.98288508190678      5.84141467915856      1.35598666511837
