62
Coordinates from ORCA-job cat_opt E -3312.975030610345
  Au          5.99684482661628      4.08961515654809     11.61797023835479
  Au          3.63032880988812      3.80385968201629      9.45571738271387
  P           6.88755504317255      4.90359957246116      9.71677019689655
  P           5.11436807337492      3.34249316643313      7.81429695790043
  Cl          5.32006040597807      3.19528414113629     13.60074603356111
  Cl          1.98983031978355      4.30870864345215     10.95809304002435
  C           6.85395911322370      3.61913252246338      8.38125383097202
  C           7.95596550457001      2.87552254674796      8.10976807311184
  H           8.88719887005582      3.14356988998296      8.64708959167291
  C           4.93777841512503      1.64289427424815      7.16550762475901
  C           5.08367398244064      1.27569903003227      5.81349561358435
  N           4.90528655276129      0.01635933807301      5.39721710642091
  C           4.57461649712437     -0.88047771299098      6.34052777243797
  N           4.37089157983767     -0.64484084418138      7.64576820801126
  C           4.54086648982410      0.61809697781202      8.05136380302312
  H           5.35157638678210      2.01953608734214      5.04360124381647
  H           4.44655383329380     -1.92479906337184      6.00201484068827
  H           4.35424630648742      0.83937636139176      9.11938802503263
  C           4.93054664120961      4.46738476542252      6.38087106875127
  C           5.93998526310434      4.68240801733804      5.42252964682147
  N           5.81833458299410      5.58235792081411      4.43987849947544
  C           4.67012704358563      6.27956168640362      4.41753917153124
  N           3.62653769197243      6.14337247471800      5.25085099016269
  C           3.75914249652437      5.23957935080775      6.22888202842376
  H           6.88660193424949      4.11561870599100      5.46603787352503
  H           4.57521609418126      7.04651243708980      3.62830477193275
  H           2.92060112672375      5.13145412047703      6.94280207002496
  C           6.04845834337845      6.35502955311099      8.96487570611483
  C           4.92699767505528      6.94007446802906      9.59144034118485
  N           4.25428868572549      7.95651718257473      9.03427877447827
  C           4.69758237733824      8.38779644105021      7.84516359942954
  N           5.76612813167908      7.93310279772397      7.16638872693653
  C           6.43530296205809      6.92401519979369      7.73508834396161
  H           4.56354519830087      6.56387379874388     10.56569182389610
  H           4.12534456359845      9.20461030938347      7.36991481422833
  H           7.30705757981225      6.54302062862506      7.17514839459974
  C           8.64636580152505      5.40819977624394      9.87241344646632
  C           9.49862566107304      5.72676730750462      8.79294361563185
  N          10.76084700705110      6.13140740996685      8.96976928162606
  C          11.18262003213070      6.22070783635152     10.24309425834641
  N          10.48092871683603      5.92669950970851     11.34703318283136
  C           9.21903269244564      5.51846122970152     11.15787196574158
  H           9.15747187917489      5.63530816982597      7.74602115142568
  H          12.22096898666112      6.56764559623223     10.39402757911740
  H           8.62523262077101      5.26013951782957     12.05541124434196
  C           8.28601155235606     -1.72459928686123      4.52955319841549
  C           9.68109625786525     -2.36762646898529      4.50709067719718
  C           8.20991362647105     -0.53158869444571      5.45204253455800
  C           8.46976453957735      0.76992225982950      4.98356550691935
  C           8.40303744825196      1.87716884786912      5.84098660387007
  C           8.05959382717580      1.71016766024090      7.19676488114342
  C           7.84211512123651      0.40507481543412      7.68533166619522
  C           7.91493302597211     -0.69343213988480      6.82157957462432
  H           7.53325977614808     -2.47647499648165      4.84723533759650
  H           7.99883820283594     -1.41128028685905      3.50444245778883
  H           9.70773129676698     -3.24097444956276      3.82514118708460
  H           9.97798027904799     -2.71405224416867      5.51785821618486
  H          10.44873402079610     -1.64353948533889      4.16641766220074
  H           8.71598885869690      0.92376555689279      3.92124426232577
  H           8.62374246805418      2.88253790178253      5.45048195258656
  H           7.58723454425432      0.25631684815672      8.74542930437495
  H           7.71293435499351     -1.70131381867620      7.21712902294451
